nesta_case2869_pegase.m
%%%%%%%%%%%%%%%%%%%%%%%%%%%%%%%%%%%%%%%%%%%%%%%%%%%%%%%%%%%%%%%%%%%%%%%%%%%
%%%%                                                                  %%%%%
%%%%      NICTA Energy System Test Case Archive (NESTA) - v0.7.0      %%%%%
%%%%              Optimal Power Flow - Typical Operation              %%%%%
%%%%                         05 - June - 2017                         %%%%%
%%%%                                                                  %%%%%
%%%%%%%%%%%%%%%%%%%%%%%%%%%%%%%%%%%%%%%%%%%%%%%%%%%%%%%%%%%%%%%%%%%%%%%%%%%
%
%CASE2869PEGASE  Power flow data for large part of European system.
%   Please see CASEFORMAT for details on the case file format.
%
%   This case accurately represents the size and complexity of part of the
%   European high voltage transmission network. The network contains 2,869
%   buses, 510 generators, and 4,582 branches and it operates at 380, 220,
%   150, and 110 kV. Please note that the data are fictitious and do not
%   correspond to real world data. They can thus be used to validate
%   methods and tools but should not be used for operation and planning of
%   the European grid.
%
%   The data stems from the Pan European Grid Advanced Simulation and State
%   Estimation (PEGASE) project, part of the 7th Framework Program of the
%   European Union (http://www.fp7-pegase.com/). When publishing results
%   based on this data, please cite:
%
%     S. Fliscounakis, P. Panciatici, F. Capitanescu, and L. Wehenkel,
%     "Contingency ranking with respect to overloads in very large power
%     systems taking into account uncertainty, preventive and corrective
%     actions", Power Systems, IEEE Trans. on, (28)4:4909-4917, 2013.
%     http://dx.doi.org/10.1109/TPWRS.2013.2251015
%
%   Remarks:
%
%   1. Line flow limits are the current flow limits found in PEGASE data.
%
%   2. PEGASE data contains asymmetric shunt conductance and susceptance in
%   the PI transmission line model of branches. Thus total line charging
%   susceptance of branches is set to 0 p.u. and the nodal representation
%   of shunt condutance and susceptance is used. As a result, power flow
%   equations are left unchanged compared with original PEGASE data.
%   However, line flow constraints in the optimal flow problem are
%   modified.
%
%   3. Identical linear costs are used for all generators to form a loss
%   minimizing OPF objective function.
%
%   4. Since some parts of the network are aggregated, some generators
%   (e.g. with negative PMIN) represent aggregations of multiple loads
%   and generators.
%
%   Cédric Josz, Stéphane Fliscounakis, Jean Maeght, Patrick Panciatici
%   firstname.lastname@rte-france.com
%   Réseau de Transport d'Electricité (French Transmission System Operator)
%   Département Expertise Système, Immeuble "Le Colbert"
%   9 rue de la Porte de Buc, 78000 Versailles Cedex, France
%   March 18th, 2015
%
%   MATPOWER
%   Copyright (c) 2015 by Cédric Josz, Stéphane Fliscounakis, Jean Maeght,
%   and Patrick Panciatici
%   Licensed under the Creative Commons Attribution 4.0 International license,
%   http://creativecommons.org/licenses/by/4.0/
%
function mpc = nesta_case2869_pegase
mpc.version = '2';
mpc.baseMVA = 100.0;

%% bus data
%	bus_i	type	Pd	Qd	Gs	Bs	area	Vm	Va	baseKV	zone	Vmax	Vmin
mpc.bus = [
	3	 1	 151.0	 48.8	 0.0	 4.69	 0	    1.07559	   -8.28932	 220.0	 5	    1.10000	    0.90000;
	4	 1	 171.41	 23.4	 0.0	 2.1	 0	    1.05864	   -5.68929	 220.0	 5	    1.10000	    0.90000;
	10	 1	 134.0	 24.7	 0.0	 12.44	 0	    1.06420	  -17.52415	 220.0	 5	    1.10000	    0.90000;
	15	 1	 59.67	 26.7	 0.0	 12.84	 0	    1.06508	  -13.75868	 220.0	 4	    1.10000	    0.90000;
	21	 1	 161.2	 39.3	 0.0	 30.71	 0	    1.06028	  -16.04495	 220.0	 5	    1.10000	    0.90000;
	22	 1	 0.0	 -0.0	 0.0	 0.85	 0	    1.07902	  -10.96952	 220.0	 5	    1.10000	    0.90000;
	26	 1	 167.3	 54.8	 0.0	 110.54	 0	    1.07023	   -1.24259	 380.0	 5	    1.10000	    0.90000;
	29	 1	 152.9	 49.4	 0.0	 27.65	 0	    1.05013	   -2.98097	 380.0	 5	    1.10000	    0.90000;
	32	 2	 0.0	 0.0	 0.0	 0.0	 0	    1.03498	   -6.39888	 220.0	 4	    1.10000	    0.90000;
	33	 2	 0.0	 0.0	 0.0	 0.0	 0	    1.05645	   -5.27943	 220.0	 4	    1.10000	    0.90000;
	38	 1	 42.75	 12.8	 0.0	 13.3	 0	    1.02492	   -3.67528	 220.0	 8	    1.10000	    0.90000;
	39	 2	 0.0	 0.0	 0.0	 0.0	 0	    1.02204	   -5.31560	 150.0	 10	    1.10000	    0.90000;
	42	 1	 20.82	 7.9	 0.0	 26.89	 0	    1.08583	   -6.84173	 380.0	 4	    1.10000	    0.90000;
	44	 1	 -0.0	 0.0	 0.0	 7.27	 0	    1.07109	  -15.54615	 220.0	 5	    1.10000	    0.90000;
	51	 2	 0.0	 0.0	 0.0	 0.0	 0	    1.06882	   -5.32056	 220.0	 4	    1.10000	    0.90000;
	52	 1	 127.6	 31.8	 0.0	 20.51	 0	    1.06306	  -12.67181	 150.0	 8	    1.10000	    0.90000;
	53	 1	 48.65	 16.1	 0.0	 7.14	 0	    1.09088	   -2.28871	 220.0	 5	    1.10000	    0.90000;
	58	 1	 0.0	 0.0	 0.0	 2.31	 0	    1.04515	   -1.15455	 380.0	 5	    1.10000	    0.90000;
	59	 1	 119.2	 20.7	 0.0	 3.31	 0	    1.08369	  -11.98854	 220.0	 5	    1.10000	    0.90000;
	69	 1	 62.87	 20.5	 0.0	 1.15	 0	    1.06288	  -13.75115	 150.0	 8	    1.10000	    0.90000;
	71	 1	 126.3	 42.4	 0.0	 55.24	 0	    1.07966	  -13.29856	 150.0	 8	    1.10000	    0.90000;
	72	 1	 6.91	 -4.6	 0.0	 5.75	 0	    1.04613	   -6.47733	 220.0	 4	    1.10000	    0.90000;
	75	 1	 38.74	 6.1	 0.0	 1.17	 0	    1.07526	  -10.42671	 220.0	 4	    1.10000	    0.90000;
	76	 1	 22.13	 10.7	 0.0	 14.21	 0	    1.02500	   -3.67134	 220.0	 8	    1.10000	    0.90000;
	77	 1	 -0.0	 -0.0	 0.0	 0.73	 0	    1.08183	   -7.08079	 220.0	 4	    1.10000	    0.90000;
	89	 1	 0.0	 0.0	 0.199111	 4.530599	 0	    1.02595	   -5.70163	 380.0	 2	    1.10000	    0.90000;
	90	 1	 363.25	 115.39	 0.0	 3.95	 0	    1.07619	  -10.10358	 220.0	 5	    1.10000	    0.90000;
	91	 1	 -0.0	 0.0	 0.0	 0.02	 0	    1.06660	  -11.54569	 150.0	 8	    1.10000	    0.90000;
	96	 1	 -8.4	 28.66	 0.0	 3.49	 0	    1.09590	   -1.95918	 220.0	 5	    1.10000	    0.90000;
	113	 1	 -0.0	 -0.0	 0.0	 6.532711	 0	    1.06555	   -4.12267	 380.0	 5	    1.10000	    0.90000;
	115	 1	 0.0	 -0.0	 0.0	 4.21	 0	    1.06847	  -12.73602	 220.0	 5	    1.10000	    0.90000;
	118	 1	 704.53	 -35.33	 0.0	 13.102834	 0	    1.07398	   -4.13156	 380.0	 5	    1.10000	    0.90000;
	124	 2	 0.0	 0.0	 0.0	 0.0	 0	    1.07025	    2.31262	 220.0	 5	    1.10000	    0.90000;
	128	 1	 23.73	 12.7	 0.0	 0.52	 0	    1.05199	  -12.94772	 220.0	 5	    1.10000	    0.90000;
	130	 1	 -0.0	 0.0	 0.135375	 47.750675	 0	    1.09050	  -10.60400	 380.0	 10	    1.10000	    0.90000;
	132	 1	 0.0	 -0.0	 0.0	 21.39	 0	    1.09111	   -7.32488	 380.0	 1	    1.10000	    0.90000;
	133	 1	 38.14	 12.5	 0.0	 6.28	 0	    1.06778	  -11.43737	 150.0	 8	    1.10000	    0.90000;
	138	 1	 -75.38	 7.8	 0.0	 29.9	 0	    1.09518	   -7.96189	 380.0	 10	    1.10000	    0.90000;
	139	 1	 -764.34	 66.91	 0.0	 33.47	 0	    1.04293	   -3.31340	 380.0	 8	    1.10000	    0.90000;
	140	 1	 0.0	 0.0	 0.0	 4.14	 0	    1.04855	   -8.56965	 220.0	 8	    1.10000	    0.90000;
	143	 1	 0.0	 0.0	 0.0	 0.0	 0	    1.05570	  -12.50289	 150.0	 8	    1.10000	    0.90000;
	145	 1	 38.34	 5.6	 0.0	 7.64	 0	    1.09158	   -4.27673	 220.0	 5	    1.10000	    0.90000;
	148	 1	 32.34	 12.0	 0.0	 6.1	 0	    1.06809	   -4.60876	 220.0	 5	    1.10000	    0.90000;
	150	 2	 0.0	 0.0	 0.0	 0.0	 0	    1.08109	   -3.34872	 220.0	 5	    1.10000	    0.90000;
	163	 1	 147.76	 32.73	 0.0	 8.34	 0	    1.07961	   -8.46061	 220.0	 5	    1.10000	    0.90000;
	164	 1	 0.0	 -0.0	 0.0	 5.17	 0	    1.05504	  -17.62000	 150.0	 8	    1.10000	    0.90000;
	171	 1	 100.8	 13.2	 0.0	 5.24	 0	    1.06196	   -7.54217	 220.0	 5	    1.10000	    0.90000;
	172	 1	 111.7	 10.96	 0.0	 4.22	 0	    1.06249	   -5.94301	 220.0	 4	    1.10000	    0.90000;
	174	 1	 370.5	 -17.0	 0.0	 9.91	 0	    1.09086	  -16.32402	 220.0	 5	    1.10000	    0.90000;
	177	 1	 94.9	 36.2	 0.0	 16.46	 0	    0.99821	   -9.81514	 220.0	 10	    1.10000	    0.90000;
	179	 2	 0.0	 0.0	 0.0	 0.0	 0	    1.09230	   -5.42101	 380.0	 4	    1.10000	    0.90000;
	184	 1	 -0.0	 -0.0	 0.0	 2.42	 0	    1.06541	  -10.62182	 220.0	 5	    1.10000	    0.90000;
	188	 1	 36.84	 13.9	 0.0	 3.3	 0	    1.05661	   -9.77458	 220.0	 5	    1.10000	    0.90000;
	194	 2	 0.0	 0.0	 0.0	 0.0	 0	    1.08275	   -2.83226	 150.0	 8	    1.10000	    0.90000;
	195	 1	 73.14	 21.55	 0.0	 8.52	 0	    1.08686	   -3.49588	 220.0	 5	    1.10000	    0.90000;
	196	 1	 0.0	 -0.0	 0.0	 12.48	 0	    1.09932	  -20.50080	 220.0	 5	    1.10000	    0.90000;
	198	 1	 39.74	 11.8	 0.0	 1.44	 0	    1.04785	  -13.34665	 220.0	 5	    1.10000	    0.90000;
	199	 1	 86.8	 28.4	 0.0	 1.34	 0	    1.06213	  -12.30954	 150.0	 8	    1.10000	    0.90000;
	201	 2	 0.0	 0.0	 0.0	 0.0	 0	    1.08073	   -8.46096	 220.0	 4	    1.10000	    0.90000;
	205	 1	 46.15	 18.2	 0.0	 1.29	 0	    1.05201	  -11.96898	 150.0	 8	    1.10000	    0.90000;
	207	 1	 321.98	 84.4	 0.0	 1.34	 0	    1.04999	  -12.32197	 220.0	 5	    1.10000	    0.90000;
	211	 1	 75.28	 19.2	 0.0	 1.9	 0	    1.05364	  -12.37222	 110.0	 8	    1.10000	    0.90000;
	216	 1	 155.6	 54.7	 0.0	 2.21	 0	    1.08641	  -15.39994	 220.0	 5	    1.10000	    0.90000;
	217	 1	 105.2	 0.1	 0.0	 7.36	 0	    1.04338	   -6.82292	 220.0	 5	    1.10000	    0.90000;
	218	 1	 69.83	 15.12	 0.0	 2.23	 0	    1.08897	   -7.84657	 220.0	 5	    1.10000	    0.90000;
	221	 2	 0.0	 0.0	 0.0	 0.0	 0	    1.04083	   -1.18802	 380.0	 5	    1.10000	    0.90000;
	225	 1	 0.0	 0.0	 0.0	 1.15	 0	    1.06561	  -13.11413	 220.0	 5	    1.10000	    0.90000;
	228	 1	 -23.43	 57.4	 0.0	 0.0	 0	    1.07662	   -8.34947	 150.0	 2	    1.10000	    0.90000;
	230	 1	 152.07	 22.52	 0.0	 7.87	 0	    1.05111	   -5.04656	 220.0	 4	    1.10000	    0.90000;
	231	 1	 -0.13	 -1.0	 0.0	 0.0	 0	    1.02180	   -6.89615	 110.0	 8	    1.10000	    0.90000;
	236	 1	 45.85	 7.0	 0.0	 1.05	 0	    1.07106	  -12.40039	 220.0	 4	    1.10000	    0.90000;
	243	 1	 0.0	 -0.01	 0.0	 13.49	 0	    1.06091	   -1.62512	 150.0	 8	    1.10000	    0.90000;
	244	 1	 -0.0	 -0.0	 0.0	 0.68	 0	    1.06880	   -9.14332	 150.0	 8	    1.10000	    0.90000;
	249	 1	 -0.0	 -0.0	 0.0	 26.3	 0	    1.03460	   -6.40604	 220.0	 4	    1.10000	    0.90000;
	257	 1	 113.9	 24.5	 0.0	 6.72	 0	    1.06612	   -8.79174	 220.0	 4	    1.10000	    0.90000;
	261	 1	 -0.0	 0.0	 0.0	 1.29	 0	    1.08665	  -10.76913	 380.0	 10	    1.10000	    0.90000;
	264	 1	 38.74	 9.0	 0.0	 0.57	 0	    1.06390	   -5.23671	 220.0	 4	    1.10000	    0.90000;
	266	 1	 0.0	 -0.0	 0.0	 140.96	 0	    1.08841	   -4.02694	 380.0	 4	    1.10000	    0.90000;
	267	 1	 103.8	 2.7	 0.0	 3.33	 0	    1.07367	   -9.24643	 220.0	 4	    1.10000	    0.90000;
	268	 1	 -0.13	 -1.0	 0.0	 0.0	 0	    1.04121	   -3.44000	 220.0	 8	    1.10000	    0.90000;
	271	 1	 96.7	 26.8	 0.0	 0.0	 0	    1.07143	   -9.91354	 150.0	 2	    1.10000	    0.90000;
	275	 1	 102.1	 25.3	 0.0	 1.11	 0	    1.06196	  -11.95081	 150.0	 8	    1.10000	    0.90000;
	280	 1	 119.6	 29.6	 0.0	 5.34	 0	    1.07980	   -5.60673	 220.0	 5	    1.10000	    0.90000;
	281	 1	 -0.0	 -0.0	 0.0	 18.07	 0	    1.07814	   -4.12057	 380.0	 8	    1.10000	    0.90000;
	283	 1	 27.33	 11.9	 0.0	 1.17	 0	    1.05938	  -11.13182	 220.0	 5	    1.10000	    0.90000;
	284	 1	 191.2	 -3.4	 0.0	 19.21	 0	    1.06500	  -13.81913	 220.0	 4	    1.10000	    0.90000;
	292	 1	 13.82	 1.4	 0.0	 0.7	 0	    1.09713	   -7.61052	 220.0	 5	    1.10000	    0.90000;
	297	 1	 23.73	 9.4	 0.0	 1.45	 0	    1.06259	  -12.50318	 150.0	 8	    1.10000	    0.90000;
	299	 2	 0.0	 0.0	 0.0	 0.0	 0	    1.10000	   -3.64328	 380.0	 4	    1.10000	    0.90000;
	304	 1	 2.2	 0.5	 0.0	 0.21	 0	    1.02578	  -17.73884	 150.0	 10	    1.10000	    0.90000;
	305	 1	 103.0	 12.0	 0.0	 0.63	 0	    1.08239	  -18.93295	 220.0	 5	    1.10000	    0.90000;
	306	 1	 -0.0	 0.0	 0.0	 4.76	 0	    1.04696	  -14.17725	 220.0	 5	    1.10000	    0.90000;
	311	 1	 42.05	 17.2	 0.0	 1.31	 0	    1.06078	  -12.68473	 150.0	 8	    1.10000	    0.90000;
	312	 1	 -0.16	 -2.91	 0.0	 0.43	 0	    1.09782	   -9.40895	 110.0	 8	    1.10000	    0.90000;
	314	 1	 163.1	 46.3	 0.0	 10.6	 0	    1.03436	  -14.36569	 220.0	 5	    1.10000	    0.90000;
	315	 1	 -0.0	 -0.0	 0.0	 2.13	 0	    1.04098	   -5.91769	 220.0	 10	    1.10000	    0.90000;
	317	 1	 -0.0	 -0.0	 0.045946	 -1.82203	 0	    1.04048	   -2.05203	 380.0	 2	    1.10000	    0.90000;
	322	 1	 303.8	 85.4	 0.0	 3.63	 0	    0.98875	  -11.30284	 220.0	 10	    1.10000	    0.90000;
	326	 1	 0.0	 0.0	 0.0	 0.0	 0	    1.04119	   -3.40534	 220.0	 8	    1.10000	    0.90000;
	333	 1	 524.5	 43.0	 0.0	 6.85	 0	    1.03833	  -26.42212	 220.0	 5	    1.10000	    0.90000;
	338	 2	 0.0	 0.0	 0.0	 0.0	 0	    1.09926	   -3.14260	 220.0	 5	    1.10000	    0.90000;
	344	 1	 372.8	 147.5	 0.0	 27.73	 0	    1.06931	  -18.19631	 150.0	 8	    1.10000	    0.90000;
	346	 1	 197.5	 48.3	 0.0	 0.71	 0	    1.08492	  -13.19623	 220.0	 5	    1.10000	    0.90000;
	349	 1	 -0.0	 0.0	 0.0	 15.15	 0	    1.08253	   -9.38177	 150.0	 8	    1.10000	    0.90000;
	350	 1	 110.4	 26.2	 0.0	 5.62	 0	    1.06862	  -16.58144	 220.0	 5	    1.10000	    0.90000;
	351	 1	 -0.15	 -1.93	 0.0	 0.0	 0	    1.04555	   -8.28250	 220.0	 8	    1.10000	    0.90000;
	352	 2	 0.0	 0.0	 0.0	 0.0	 0	    1.01939	    1.51046	 380.0	 5	    1.10000	    0.90000;
	360	 1	 35.54	 11.5	 0.0	 3.65	 0	    1.09126	   -9.57288	 110.0	 8	    1.10000	    0.90000;
	367	 1	 65.17	 -51.5	 0.0	 4.85	 0	    1.09518	  -17.89237	 220.0	 5	    1.10000	    0.90000;
	369	 1	 -0.0	 0.0	 0.0	 3.78	 0	    1.07526	   -9.84771	 220.0	 8	    1.10000	    0.90000;
	370	 1	 56.76	 23.2	 0.0	 0.49	 0	    1.05823	  -12.85601	 150.0	 8	    1.10000	    0.90000;
	377	 1	 -0.18	 -1.0	 0.0	 0.0	 0	    1.07181	   -5.56819	 150.0	 8	    1.10000	    0.90000;
	380	 1	 -95.71	 -2.8	 0.0	 7.25	 0	    1.01427	   -3.26302	 220.0	 10	    1.10000	    0.90000;
	385	 1	 -0.0	 -0.0	 0.0	 105.84	 0	    1.08478	   -8.95978	 380.0	 4	    1.10000	    0.90000;
	387	 1	 -0.19	 -4.38	 0.0	 0.0	 0	    1.06771	  -11.01089	 150.0	 8	    1.10000	    0.90000;
	389	 2	 0.0	 0.0	 0.0	 0.0	 0	    1.03103	   -8.32495	 150.0	 10	    1.10000	    0.90000;
	392	 1	 134.1	 34.2	 0.0	 0.75	 0	    1.05691	  -13.73367	 150.0	 8	    1.10000	    0.90000;
	395	 1	 -0.0	 -0.0	 0.0	 7.85	 0	    1.07787	   -3.63505	 380.0	 8	    1.10000	    0.90000;
	401	 1	 56.5	 36.29	 0.0	 3.08	 0	    1.09477	   -5.09079	 220.0	 5	    1.10000	    0.90000;
	408	 1	 129.1	 7.4	 0.0	 0.04	 0	    1.06848	  -10.66085	 220.0	 5	    1.10000	    0.90000;
	410	 1	 170.89	 50.38	 0.0	 6.44	 0	    1.08289	  -10.73836	 220.0	 5	    1.10000	    0.90000;
	413	 2	 0.0	 0.0	 0.0	 0.0	 0	    1.07837	    1.00503	 220.0	 5	    1.10000	    0.90000;
	415	 1	 4.71	 0.7	 0.0	 11.39	 0	    1.06943	  -10.27781	 220.0	 4	    1.10000	    0.90000;
	416	 1	 70.68	 13.5	 0.0	 6.96	 0	    1.08894	   -5.76150	 220.0	 5	    1.10000	    0.90000;
	420	 1	 0.0	 0.0	 0.0	 0.0	 0	    1.09116	   -1.44211	 380.0	 8	    1.10000	    0.90000;
	425	 1	 -0.0	 0.0	 0.0	 2.72	 0	    1.05831	   -4.89557	 380.0	 1	    1.10000	    0.90000;
	426	 1	 123.1	 6.5	 0.0	 3.25	 0	    1.08060	   -9.54360	 220.0	 5	    1.10000	    0.90000;
	427	 1	 -0.0	 0.0	 0.0	 1.24	 0	    1.08650	   -4.22731	 380.0	 1	    1.10000	    0.90000;
	429	 1	 26.93	 -22.4	 0.0	 4.95	 0	    1.08621	   -6.23788	 220.0	 4	    1.10000	    0.90000;
	432	 1	 -0.0	 -0.0	 0.0	 68.517663	 0	    1.05995	    0.09650	 380.0	 5	    1.10000	    0.90000;
	440	 2	 0.0	 0.0	 0.0	 0.0	 0	    1.03858	   -3.64081	 220.0	 4	    1.10000	    0.90000;
	441	 1	 -0.0	 0.0	 0.199768	 27.888516	 0	    1.07041	  -15.93498	 380.0	 10	    1.10000	    0.90000;
	442	 2	 0.0	 0.0	 0.0	 0.0	 0	    1.06195	   -3.69570	 220.0	 4	    1.10000	    0.90000;
	444	 1	 0.0	 -0.0	 0.0	 2.45	 0	    1.05941	  -11.16252	 220.0	 5	    1.10000	    0.90000;
	445	 1	 36.74	 10.3	 0.0	 8.1	 0	    1.06474	  -10.12312	 220.0	 4	    1.10000	    0.90000;
	449	 1	 0.0	 0.0	 0.0	 29.42	 0	    1.02409	   -2.77485	 380.0	 5	    1.10000	    0.90000;
	453	 2	 0.0	 0.0	 0.0	 0.0	 0	    1.06617	   -1.09495	 380.0	 5	    1.10000	    0.90000;
	455	 1	 274.32	 5.66	 0.0	 13.24	 0	    1.06855	  -16.89510	 220.0	 5	    1.10000	    0.90000;
	472	 1	 336.2	 131.6	 0.0	 64.01	 0	    1.08318	  -10.50815	 150.0	 8	    1.10000	    0.90000;
	473	 1	 -22.95	 -3.72	 0.0	 14.34	 0	    1.06935	   -4.65754	 220.0	 4	    1.10000	    0.90000;
	477	 1	 0.0	 0.0	 0.0	 70.37	 0	    1.07606	   -6.63786	 380.0	 4	    1.10000	    0.90000;
	481	 1	 -0.0	 0.0	 0.0	 17.44	 0	    1.06557	  -13.44395	 220.0	 4	    1.10000	    0.90000;
	483	 1	 57.26	 15.6	 0.0	 3.43	 0	    1.08933	   -7.26552	 220.0	 4	    1.10000	    0.90000;
	486	 1	 7.01	 2.0	 0.0	 0.44	 0	    1.06523	  -10.46469	 150.0	 8	    1.10000	    0.90000;
	489	 2	 0.0	 0.0	 0.0	 0.0	 0	    1.06321	   -5.36967	 220.0	 4	    1.10000	    0.90000;
	490	 1	 20.52	 4.0	 0.0	 2.77	 0	    1.05761	  -16.82266	 220.0	 5	    1.10000	    0.90000;
	496	 1	 -0.0	 -0.0	 0.0	 10.04	 0	    1.07009	   -5.30982	 150.0	 8	    1.10000	    0.90000;
	500	 1	 144.4	 35.5	 0.0	 7.66	 0	    1.08111	   -6.43449	 220.0	 5	    1.10000	    0.90000;
	502	 1	 -0.0	 0.0	 0.0	 1.96	 0	    1.07673	   -2.47926	 220.0	 5	    1.10000	    0.90000;
	506	 1	 -0.0	 0.0	 0.0	 0.4	 0	    1.08275	   -0.93083	 380.0	 5	    1.10000	    0.90000;
	509	 1	 77.29	 7.0	 0.0	 17.6	 0	    1.08591	  -15.33457	 220.0	 4	    1.10000	    0.90000;
	513	 1	 57.46	 17.1	 0.0	 1.61	 0	    1.07216	   -3.31843	 220.0	 5	    1.10000	    0.90000;
	516	 2	 0.0	 0.0	 0.0	 0.0	 0	    1.09246	  -16.19722	 220.0	 5	    1.10000	    0.90000;
	519	 1	 207.2	 9.4	 0.0	 8.77	 0	    1.07875	   -8.85439	 220.0	 4	    1.10000	    0.90000;
	520	 1	 118.5	 20.4	 0.0	 2.57	 0	    1.09450	   -7.58229	 220.0	 5	    1.10000	    0.90000;
	523	 1	 189.9	 74.7	 0.0	 26.2	 0	    1.07740	  -11.16129	 150.0	 8	    1.10000	    0.90000;
	527	 1	 277.7	 45.4	 0.0	 0.7	 0	    1.06436	   -5.06605	 220.0	 4	    1.10000	    0.90000;
	536	 1	 87.8	 -1.4	 0.079073	 36.047349	 0	    1.08923	  -12.23321	 380.0	 10	    1.10000	    0.90000;
	539	 1	 57.96	 18.9	 0.0	 14.91	 0	    1.06354	  -11.26802	 150.0	 8	    1.10000	    0.90000;
	544	 1	 79.69	 39.6	 0.0	 18.83	 0	    1.07226	  -15.66655	 380.0	 10	    1.10000	    0.90000;
	548	 1	 30.93	 8.9	 0.0	 0.45	 0	    1.04346	  -11.65970	 110.0	 8	    1.10000	    0.90000;
	549	 1	 0.0	 -0.0	 0.0	 5.15	 0	    1.10000	   -4.02146	 220.0	 5	    1.10000	    0.90000;
	550	 1	 0.0	 -0.0	 0.0	 10.0	 0	    1.06542	   -9.15797	 220.0	 4	    1.10000	    0.90000;
	552	 1	 180.8	 90.8	 0.0	 2.42	 0	    0.99291	   -9.18801	 150.0	 10	    1.10000	    0.90000;
	554	 1	 0.0	 -0.0	 0.0	 1.97	 0	    1.06876	  -13.09383	 220.0	 5	    1.10000	    0.90000;
	556	 1	 16.52	 9.0	 0.0	 1.17	 0	    1.05831	  -16.62081	 220.0	 5	    1.10000	    0.90000;
	558	 1	 -0.18	 -3.57	 0.0	 0.0	 0	    1.06091	   -1.62510	 150.0	 8	    1.10000	    0.90000;
	559	 1	 42.25	 16.6	 0.0	 0.0	 0	    1.06473	  -12.02784	 150.0	 8	    1.10000	    0.90000;
	561	 1	 0.0	 -0.0	 0.0	 0.32	 0	    1.09048	   -2.96288	 220.0	 5	    1.10000	    0.90000;
	564	 2	 0.0	 0.0	 0.0	 0.0	 0	    1.09733	  -28.34222	 220.0	 5	    1.10000	    0.90000;
	575	 1	 0.0	 -0.0	 0.0	 0.67	 0	    1.06810	  -10.77664	 220.0	 5	    1.10000	    0.90000;
	577	 1	 -0.13	 -1.0	 0.0	 0.0	 0	    1.04071	   -3.50205	 220.0	 8	    1.10000	    0.90000;
	579	 1	 17.32	 6.6	 0.0	 16.52	 0	    1.08562	   -7.79799	 380.0	 4	    1.10000	    0.90000;
	583	 2	 0.0	 0.0	 0.0	 0.0	 0	    1.09145	   -4.44278	 220.0	 5	    1.10000	    0.90000;
	585	 1	 21.12	 8.3	 0.0	 4.26	 0	    1.07482	  -12.46864	 150.0	 8	    1.10000	    0.90000;
	593	 1	 -0.0	 0.0	 0.0	 29.2	 0	    1.09260	   -1.77657	 380.0	 8	    1.10000	    0.90000;
	594	 1	 67.57	 17.0	 0.0	 5.75	 0	    1.06017	   -1.26330	 220.0	 5	    1.10000	    0.90000;
	595	 1	 47.55	 5.3	 0.0	 7.59	 0	    1.07863	   -9.36465	 220.0	 4	    1.10000	    0.90000;
	597	 1	 33.34	 15.7	 0.0	 64.15	 0	    1.09703	   -8.31633	 380.0	 4	    1.10000	    0.90000;
	601	 1	 140.6	 42.6	 0.0	 5.71	 0	    1.09172	   -6.55612	 220.0	 5	    1.10000	    0.90000;
	602	 1	 110.8	 -8.8	 0.0	 3.15	 0	    1.06565	  -12.54093	 220.0	 4	    1.10000	    0.90000;
	604	 1	 33.24	 4.4	 0.0	 24.54	 0	    1.02569	   -8.09686	 380.0	 5	    1.10000	    0.90000;
	608	 1	 150.9	 10.4	 0.0	 4.77	 0	    1.09616	   -7.82797	 220.0	 5	    1.10000	    0.90000;
	609	 1	 -0.0	 -0.0	 0.0	 5.67	 0	    1.06858	   -8.17412	 220.0	 5	    1.10000	    0.90000;
	610	 1	 -0.0	 0.0	 0.0	 0.91	 0	    1.02249	  -19.36199	 150.0	 10	    1.10000	    0.90000;
	615	 2	 0.0	 0.0	 0.0	 0.0	 0	    1.09761	   -3.57779	 220.0	 5	    1.10000	    0.90000;
	616	 2	 0.0	 0.0	 0.0	 0.0	 0	    1.10000	   -4.95574	 220.0	 5	    1.10000	    0.90000;
	618	 2	 0.0	 0.0	 0.0	 0.0	 0	    1.09399	   -4.84620	 380.0	 4	    1.10000	    0.90000;
	619	 1	 72.88	 14.4	 0.0	 2.96	 0	    1.09428	  -16.76338	 220.0	 5	    1.10000	    0.90000;
	621	 1	 21.42	 8.1	 0.0	 7.38	 0	    1.07194	  -11.26779	 220.0	 4	    1.10000	    0.90000;
	628	 2	 0.0	 0.0	 0.0	 0.0	 0	    0.99930	   -5.06852	 220.0	 10	    1.10000	    0.90000;
	639	 2	 0.0	 0.0	 0.0	 0.0	 0	    1.09666	  -19.74746	 220.0	 5	    1.10000	    0.90000;
	641	 1	 45.32	 18.5	 0.0	 0.74	 0	    1.09625	   -1.32500	 220.0	 5	    1.10000	    0.90000;
	642	 2	 0.0	 0.0	 0.0	 0.0	 0	    1.09454	   -5.47563	 380.0	 4	    1.10000	    0.90000;
	643	 1	 15.52	 6.3	 0.0	 0.6	 0	    1.06444	  -12.44290	 150.0	 8	    1.10000	    0.90000;
	649	 1	 40.94	 19.2	 0.0	 5.2	 0	    1.06593	  -13.67361	 220.0	 4	    1.10000	    0.90000;
	650	 1	 17.22	 4.4	 0.0	 1.71	 0	    1.04200	  -13.49523	 110.0	 8	    1.10000	    0.90000;
	656	 1	 -0.15	 -1.93	 0.0	 0.0	 0	    1.04552	   -8.28168	 220.0	 8	    1.10000	    0.90000;
	658	 1	 258.4	 66.7	 0.0	 5.87	 0	    1.06096	   -7.69585	 220.0	 5	    1.10000	    0.90000;
	659	 1	 -0.0	 -0.0	 0.174507	 73.977052	 0	    1.04120	   -2.15581	 380.0	 2	    1.10000	    0.90000;
...
];

%% generator data
%	bus	Pg	Qg	Qmax	Qmin	Vg	mBase	status	Pmax	Pmin	Pc1	Pc2	Qc1min	Qc1max	Qc2min	Qc2max	ramp_agc	ramp_10	ramp_30	ramp_q	apf
mpc.gen = [
	32	 16.2	 -4.56	 5.91	 -4.56	 1.03498	 100.0	 1	 16.2	 0.0	 0.0	 0.0	 0.0	 0.0	 0.0	 0.0	 0.0	 0.0	 0.0	 0.0	 0.0;
	33	 0.0	 2.27	 2.27	 -1.08	 1.05645	 100.0	 1	 5.38	 0.0	 0.0	 0.0	 0.0	 0.0	 0.0	 0.0	 0.0	 0.0	 0.0	 0.0	 0.0;
	39	 8.292	 2.028	 17.76	 -7.14	 1.02204	 100.0	 1	 40.0	 0.0	 0.0	 0.0	 0.0	 0.0	 0.0	 0.0	 0.0	 0.0	 0.0	 0.0	 0.0;
	51	 100.0	 5.479	 5.48	 -4.19	 1.06882	 100.0	 1	 100.0	 -192.67	 0.0	 0.0	 0.0	 0.0	 0.0	 0.0	 0.0	 0.0	 0.0	 0.0	 0.0;
	124	 333.33	 -152.193	 440.32	 -172.59	 1.07025	 100.0	 1	 1000.0	 333.33	 0.0	 0.0	 0.0	 0.0	 0.0	 0.0	 0.0	 0.0	 0.0	 0.0	 0.0;
	150	 0.153	 -5.067	 77.09	 -22.54	 1.08109	 100.0	 1	 160.0	 0.0	 0.0	 0.0	 0.0	 0.0	 0.0	 0.0	 0.0	 0.0	 0.0	 0.0	 0.0;
	179	 100.0	 -51.72	 52.64	 -51.72	 1.0923	 100.0	 1	 100.0	 -238.93	 0.0	 0.0	 0.0	 0.0	 0.0	 0.0	 0.0	 0.0	 0.0	 0.0	 0.0;
	194	 293.122	 58.996	 130.19	 -53.53	 1.08275	 100.0	 1	 300.0	 100.0	 0.0	 0.0	 0.0	 0.0	 0.0	 0.0	 0.0	 0.0	 0.0	 0.0	 0.0;
	201	 5.37	 -1.07	 2.27	 -1.07	 1.08073	 100.0	 1	 5.37	 0.0	 0.0	 0.0	 0.0	 0.0	 0.0	 0.0	 0.0	 0.0	 0.0	 0.0	 0.0;
	221	 99.999	 -65.14	 183.92	 -65.3	 1.04083	 100.0	 1	 100.0	 -207.18	 0.0	 0.0	 0.0	 0.0	 0.0	 0.0	 0.0	 0.0	 0.0	 0.0	 0.0;
	299	 1539.556	 36.363	 721.25	 -258.71	 1.1	 100.0	 1	 1600.0	 533.33	 0.0	 0.0	 0.0	 0.0	 0.0	 0.0	 0.0	 0.0	 0.0	 0.0	 0.0;
	338	 4.014	 -2.281	 55.54	 -19.16	 1.09926	 100.0	 1	 120.0	 0.0	 0.0	 0.0	 0.0	 0.0	 0.0	 0.0	 0.0	 0.0	 0.0	 0.0	 0.0;
	352	 831.545	 4.761	 926.35	 -297.68	 1.01939	 100.0	 1	 2000.0	 666.67	 0.0	 0.0	 0.0	 0.0	 0.0	 0.0	 0.0	 0.0	 0.0	 0.0	 0.0;
	389	 29.415	 0.147	 56.73	 -17.84	 1.03103	 100.0	 1	 120.0	 0.0	 0.0	 0.0	 0.0	 0.0	 0.0	 0.0	 0.0	 0.0	 0.0	 0.0	 0.0;
	413	 35.851	 1.519	 124.12	 -49.84	 1.07837	 100.0	 1	 280.0	 0.0	 0.0	 0.0	 0.0	 0.0	 0.0	 0.0	 0.0	 0.0	 0.0	 0.0	 0.0;
	440	 0.019	 0.036	 55.73	 -19.01	 1.03858	 100.0	 1	 120.0	 0.0	 0.0	 0.0	 0.0	 0.0	 0.0	 0.0	 0.0	 0.0	 0.0	 0.0	 0.0;
	442	 84.773	 1.95	 1.95	 -0.93	 1.06195	 100.0	 1	 100.0	 -53.8	 0.0	 0.0	 0.0	 0.0	 0.0	 0.0	 0.0	 0.0	 0.0	 0.0	 0.0;
	453	 291.022	 -27.968	 257.23	 -74.4	 1.06617	 100.0	 1	 540.0	 0.0	 0.0	 0.0	 0.0	 0.0	 0.0	 0.0	 0.0	 0.0	 0.0	 0.0	 0.0;
	489	 100.0	 1.818	 6.28	 -4.82	 1.06321	 100.0	 1	 100.0	 -143.2	 0.0	 0.0	 0.0	 0.0	 0.0	 0.0	 0.0	 0.0	 0.0	 0.0	 0.0;
	516	 600.0	 170.465	 261.79	 -106.67	 1.09246	 100.0	 1	 600.0	 200.0	 0.0	 0.0	 0.0	 0.0	 0.0	 0.0	 0.0	 0.0	 0.0	 0.0	 0.0;
	564	 100.0	 -19.35	 18.47	 -19.35	 1.09733	 100.0	 1	 100.0	 -68.89	 0.0	 0.0	 0.0	 0.0	 0.0	 0.0	 0.0	 0.0	 0.0	 0.0	 0.0;
	583	 76.361	 17.88	 17.88	 -7.03	 1.09145	 100.0	 1	 100.0	 -360.0	 0.0	 0.0	 0.0	 0.0	 0.0	 0.0	 0.0	 0.0	 0.0	 0.0	 0.0;
	615	 0.0	 -0.955	 17.09	 -7.79	 1.09761	 100.0	 1	 40.0	 0.0	 0.0	 0.0	 0.0	 0.0	 0.0	 0.0	 0.0	 0.0	 0.0	 0.0	 0.0;
	616	 480.0	 46.426	 217.9	 -81.16	 1.1	 100.0	 1	 480.0	 160.0	 0.0	 0.0	 0.0	 0.0	 0.0	 0.0	 0.0	 0.0	 0.0	 0.0	 0.0;
	618	 800.0	 161.104	 351.18	 -139.11	 1.09399	 100.0	 1	 800.0	 266.67	 0.0	 0.0	 0.0	 0.0	 0.0	 0.0	 0.0	 0.0	 0.0	 0.0	 0.0;
	628	 8.842	 64.957	 78.79	 -31.69	 0.9993	 100.0	 1	 180.0	 0.0	 0.0	 0.0	 0.0	 0.0	 0.0	 0.0	 0.0	 0.0	 0.0	 0.0	 0.0;
	639	 100.0	 97.232	 135.52	 -38.9	 1.09666	 100.0	 1	 100.0	 -61.6	 0.0	 0.0	 0.0	 0.0	 0.0	 0.0	 0.0	 0.0	 0.0	 0.0	 0.0;
	642	 276.09	 0.898	 90.13	 -93.03	 1.09454	 100.0	 1	 276.09	 0.0	 0.0	 0.0	 0.0	 0.0	 0.0	 0.0	 0.0	 0.0	 0.0	 0.0	 0.0;
	682	 43.509	 -11.06	 38.77	 -11.06	 1.0876	 100.0	 1	 80.0	 0.0	 0.0	 0.0	 0.0	 0.0	 0.0	 0.0	 0.0	 0.0	 0.0	 0.0	 0.0;
	686	 -12.467	 -8.941	 34.75	 -34.26	 1.06968	 100.0	 1	 100.0	 -28.86	 0.0	 0.0	 0.0	 0.0	 0.0	 0.0	 0.0	 0.0	 0.0	 0.0	 0.0;
	698	 100.0	 -22.876	 129.94	 -53.91	 0.99834	 100.0	 1	 300.0	 100.0	 0.0	 0.0	 0.0	 0.0	 0.0	 0.0	 0.0	 0.0	 0.0	 0.0	 0.0;
	709	 65.3	 -20.83	 22.23	 -20.83	 1.09335	 100.0	 1	 65.3	 0.0	 0.0	 0.0	 0.0	 0.0	 0.0	 0.0	 0.0	 0.0	 0.0	 0.0	 0.0;
	739	 396.686	 -93.45	 212.97	 -93.45	 1.0746	 100.0	 1	 500.0	 166.67	 0.0	 0.0	 0.0	 0.0	 0.0	 0.0	 0.0	 0.0	 0.0	 0.0	 0.0;
	749	 28.54	 -14.298	 105.69	 -43.84	 1.07809	 100.0	 1	 240.0	 0.0	 0.0	 0.0	 0.0	 0.0	 0.0	 0.0	 0.0	 0.0	 0.0	 0.0	 0.0;
	751	 141.472	 6.741	 136.94	 -47.24	 1.06087	 100.0	 1	 300.0	 0.0	 0.0	 0.0	 0.0	 0.0	 0.0	 0.0	 0.0	 0.0	 0.0	 0.0	 0.0;
	757	 120.0	 51.3	 51.3	 -23.41	 1.05401	 100.0	 1	 120.0	 0.0	 0.0	 0.0	 0.0	 0.0	 0.0	 0.0	 0.0	 0.0	 0.0	 0.0	 0.0;
	776	 100.0	 14.684	 18.16	 -6.73	 1.09099	 100.0	 1	 100.0	 -148.53	 0.0	 0.0	 0.0	 0.0	 0.0	 0.0	 0.0	 0.0	 0.0	 0.0	 0.0;
	778	 0.017	 -2.503	 12.37	 -9.36	 1.09954	 100.0	 1	 33.58	 0.0	 0.0	 0.0	 0.0	 0.0	 0.0	 0.0	 0.0	 0.0	 0.0	 0.0	 0.0;
	780	 80.0	 19.719	 37.43	 -12.32	 1.03964	 100.0	 1	 80.0	 0.0	 0.0	 0.0	 0.0	 0.0	 0.0	 0.0	 0.0	 0.0	 0.0	 0.0	 0.0;
	795	 79.999	 -0.3	 36.75	 -13.04	 1.1	 100.0	 1	 80.0	 0.0	 0.0	 0.0	 0.0	 0.0	 0.0	 0.0	 0.0	 0.0	 0.0	 0.0	 0.0;
	803	 50.187	 1.391	 74.03	 -25.54	 1.0987	 100.0	 1	 100.0	 -118.93	 0.0	 0.0	 0.0	 0.0	 0.0	 0.0	 0.0	 0.0	 0.0	 0.0	 0.0;
	807	 1474.029	 44.921	 864.47	 -360.97	 1.09937	 100.0	 1	 2000.0	 666.67	 0.0	 0.0	 0.0	 0.0	 0.0	 0.0	 0.0	 0.0	 0.0	 0.0	 0.0;
	823	 944.243	 22.129	 926.68	 -298.31	 1.02197	 100.0	 1	 2000.0	 666.67	 0.0	 0.0	 0.0	 0.0	 0.0	 0.0	 0.0	 0.0	 0.0	 0.0	 0.0;
	849	 0.001	 -4.908	 6.45	 -4.91	 1.07888	 100.0	 1	 17.57	 0.0	 0.0	 0.0	 0.0	 0.0	 0.0	 0.0	 0.0	 0.0	 0.0	 0.0	 0.0;
	851	 200.0	 96.639	 96.64	 -27.81	 1.09984	 100.0	 1	 200.0	 0.0	 0.0	 0.0	 0.0	 0.0	 0.0	 0.0	 0.0	 0.0	 0.0	 0.0	 0.0;
	858	 473.693	 88.016	 440.67	 -172.15	 1.03993	 100.0	 1	 1000.0	 333.33	 0.0	 0.0	 0.0	 0.0	 0.0	 0.0	 0.0	 0.0	 0.0	 0.0	 0.0;
	891	 2400.0	 575.997	 1097.41	 -373.91	 1.0844	 100.0	 1	 2400.0	 800.0	 0.0	 0.0	 0.0	 0.0	 0.0	 0.0	 0.0	 0.0	 0.0	 0.0	 0.0;
	913	 1700.0	 645.157	 772.11	 -269.94	 1.05841	 100.0	 1	 1700.0	 566.67	 0.0	 0.0	 0.0	 0.0	 0.0	 0.0	 0.0	 0.0	 0.0	 0.0	 0.0;
	916	 0.001	 -12.521	 134.45	 -49.76	 1.04145	 100.0	 1	 300.0	 0.0	 0.0	 0.0	 0.0	 0.0	 0.0	 0.0	 0.0	 0.0	 0.0	 0.0	 0.0;
	930	 330.82	 -124.47	 406.66	 -144.75	 1.0776	 100.0	 1	 900.0	 300.0	 0.0	 0.0	 0.0	 0.0	 0.0	 0.0	 0.0	 0.0	 0.0	 0.0	 0.0;
	972	 666.67	 118.987	 934.73	 -291.52	 1.06134	 100.0	 1	 2000.0	 666.67	 0.0	 0.0	 0.0	 0.0	 0.0	 0.0	 0.0	 0.0	 0.0	 0.0	 0.0;
	976	 107.83	 36.019	 36.02	 -35.35	 1.09403	 100.0	 1	 107.83	 0.0	 0.0	 0.0	 0.0	 0.0	 0.0	 0.0	 0.0	 0.0	 0.0	 0.0	 0.0;
	1001	 120.0	 55.019	 55.02	 -19.81	 1.09112	 100.0	 1	 120.0	 0.0	 0.0	 0.0	 0.0	 0.0	 0.0	 0.0	 0.0	 0.0	 0.0	 0.0	 0.0;
	1002	 200.0	 89.549	 89.55	 -35.15	 1.0884	 100.0	 1	 200.0	 0.0	 0.0	 0.0	 0.0	 0.0	 0.0	 0.0	 0.0	 0.0	 0.0	 0.0	 0.0;
	1021	 100.0	 1.932	 58.34	 -16.23	 1.06487	 100.0	 1	 100.0	 -239.07	 0.0	 0.0	 0.0	 0.0	 0.0	 0.0	 0.0	 0.0	 0.0	 0.0	 0.0;
	1030	 235.759	 35.614	 71.66	 -27.89	 1.02872	 100.0	 1	 400.0	 100.0	 0.0	 0.0	 0.0	 0.0	 0.0	 0.0	 0.0	 0.0	 0.0	 0.0	 0.0;
	1036	 100.0	 -10.448	 137.39	 -46.45	 1.04552	 100.0	 1	 300.0	 100.0	 0.0	 0.0	 0.0	 0.0	 0.0	 0.0	 0.0	 0.0	 0.0	 0.0	 0.0;
	1043	 300.002	 0.159	 387.88	 -163.4	 1.07018	 100.0	 1	 900.0	 300.0	 0.0	 0.0	 0.0	 0.0	 0.0	 0.0	 0.0	 0.0	 0.0	 0.0	 0.0;
	1083	 82.7	 13.198	 54.91	 -19.88	 1.09915	 100.0	 1	 120.0	 0.0	 0.0	 0.0	 0.0	 0.0	 0.0	 0.0	 0.0	 0.0	 0.0	 0.0	 0.0;
	1093	 1199.998	 145.292	 550.69	 -185.15	 1.07134	 100.0	 1	 1200.0	 400.0	 0.0	 0.0	 0.0	 0.0	 0.0	 0.0	 0.0	 0.0	 0.0	 0.0	 0.0;
	1100	 0.144	 0.0	 36.8	 -13.01	 1.08835	 100.0	 1	 80.0	 0.0	 0.0	 0.0	 0.0	 0.0	 0.0	 0.0	 0.0	 0.0	 0.0	 0.0	 0.0;
	1102	 99.998	 37.991	 38.05	 -11.59	 1.07834	 100.0	 1	 100.0	 -165.54	 0.0	 0.0	 0.0	 0.0	 0.0	 0.0	 0.0	 0.0	 0.0	 0.0	 0.0;
	1121	 129.37	 -23.263	 158.2	 -62.81	 1.04675	 100.0	 1	 360.0	 0.0	 0.0	 0.0	 0.0	 0.0	 0.0	 0.0	 0.0	 0.0	 0.0	 0.0	 0.0;
	1173	 -18.32	 -0.88	 1.85	 -0.88	 1.06416	 100.0	 1	 100.0	 -166.27	 0.0	 0.0	 0.0	 0.0	 0.0	 0.0	 0.0	 0.0	 0.0	 0.0	 0.0;
	1174	 35.688	 1.116	 18.61	 -6.28	 1.02186	 100.0	 1	 40.0	 0.0	 0.0	 0.0	 0.0	 0.0	 0.0	 0.0	 0.0	 0.0	 0.0	 0.0	 0.0;
	1175	 200.0	 16.438	 108.35	 -39.12	 1.07348	 100.0	 1	 700.0	 200.0	 0.0	 0.0	 0.0	 0.0	 0.0	 0.0	 0.0	 0.0	 0.0	 0.0	 0.0;
	1237	 1064.03	 93.744	 906.61	 -319.44	 1.07123	 100.0	 1	 2000.0	 666.67	 0.0	 0.0	 0.0	 0.0	 0.0	 0.0	 0.0	 0.0	 0.0	 0.0	 0.0;
	1241	 65.63	 -20.98	 22.29	 -20.98	 1.04045	 100.0	 1	 65.63	 0.0	 0.0	 0.0	 0.0	 0.0	 0.0	 0.0	 0.0	 0.0	 0.0	 0.0	 0.0;
	1251	 888.551	 96.071	 550.69	 -185.15	 1.07116	 100.0	 1	 1200.0	 400.0	 0.0	 0.0	 0.0	 0.0	 0.0	 0.0	 0.0	 0.0	 0.0	 0.0	 0.0;
	1271	 60.843	 -6.18	 32.54	 -32.11	 1.0636	 100.0	 1	 100.0	 -134.0	 0.0	 0.0	 0.0	 0.0	 0.0	 0.0	 0.0	 0.0	 0.0	 0.0	 0.0;
	1295	 99.999	 34.141	 36.92	 -12.88	 1.09934	 100.0	 1	 100.0	 -165.47	 0.0	 0.0	 0.0	 0.0	 0.0	 0.0	 0.0	 0.0	 0.0	 0.0	 0.0;
	1341	 120.0	 57.03	 57.03	 -17.62	 1.08073	 100.0	 1	 120.0	 0.0	 0.0	 0.0	 0.0	 0.0	 0.0	 0.0	 0.0	 0.0	 0.0	 0.0	 0.0;
	1354	 100.0	 38.076	 38.08	 -11.73	 1.07666	 100.0	 1	 100.0	 -328.67	 0.0	 0.0	 0.0	 0.0	 0.0	 0.0	 0.0	 0.0	 0.0	 0.0	 0.0;
	1391	 22.37	 -2.421	 18.74	 -6.17	 1.03839	 100.0	 1	 40.0	 0.0	 0.0	 0.0	 0.0	 0.0	 0.0	 0.0	 0.0	 0.0	 0.0	 0.0	 0.0;
	1399	 100.0	 -10.2	 11.64	 -10.2	 1.09041	 100.0	 1	 100.0	 -232.8	 0.0	 0.0	 0.0	 0.0	 0.0	 0.0	 0.0	 0.0	 0.0	 0.0	 0.0;
	1409	 800.0	 -151.755	 338.66	 -151.76	 1.06556	 100.0	 1	 800.0	 266.67	 0.0	 0.0	 0.0	 0.0	 0.0	 0.0	 0.0	 0.0	 0.0	 0.0	 0.0;
	1422	 36.196	 11.98	 18.09	 -6.79	 1.09927	 100.0	 1	 100.0	 -134.67	 0.0	 0.0	 0.0	 0.0	 0.0	 0.0	 0.0	 0.0	 0.0	 0.0	 0.0;
	1436	 0.0	 -12.089	 37.72	 -12.09	 1.09675	 100.0	 1	 80.0	 0.0	 0.0	 0.0	 0.0	 0.0	 0.0	 0.0	 0.0	 0.0	 0.0	 0.0	 0.0;
	1458	 1097.141	 -330.78	 895.23	 -330.78	 1.07484	 100.0	 1	 2000.0	 666.67	 0.0	 0.0	 0.0	 0.0	 0.0	 0.0	 0.0	 0.0	 0.0	 0.0	 0.0;
	1475	 736.993	 -139.03	 394.45	 -157.0	 1.06792	 100.0	 1	 900.0	 300.0	 0.0	 0.0	 0.0	 0.0	 0.0	 0.0	 0.0	 0.0	 0.0	 0.0	 0.0;
	1478	 42.826	 1.68	 36.4	 -13.44	 1.09057	 100.0	 1	 80.0	 0.0	 0.0	 0.0	 0.0	 0.0	 0.0	 0.0	 0.0	 0.0	 0.0	 0.0	 0.0;
	1498	 5.31	 -1.06	 2.25	 -1.06	 1.09348	 100.0	 1	 5.31	 0.0	 0.0	 0.0	 0.0	 0.0	 0.0	 0.0	 0.0	 0.0	 0.0	 0.0	 0.0;
	1570	 66.67	 -29.49	 93.16	 -29.49	 1.08561	 100.0	 1	 200.0	 66.67	 0.0	 0.0	 0.0	 0.0	 0.0	 0.0	 0.0	 0.0	 0.0	 0.0	 0.0;
	1604	 35.918	 6.857	 37.66	 -12.17	 1.07689	 100.0	 1	 80.0	 0.0	 0.0	 0.0	 0.0	 0.0	 0.0	 0.0	 0.0	 0.0	 0.0	 0.0	 0.0;
	1618	 100.0	 -20.07	 21.27	 -20.07	 1.09694	 100.0	 1	 100.0	 -182.13	 0.0	 0.0	 0.0	 0.0	 0.0	 0.0	 0.0	 0.0	 0.0	 0.0	 0.0;
	1642	 80.0	 37.74	 37.74	 -12.11	 1.03809	 100.0	 1	 80.0	 0.0	 0.0	 0.0	 0.0	 0.0	 0.0	 0.0	 0.0	 0.0	 0.0	 0.0	 0.0;
	1680	 1809.376	 47.255	 928.89	 -296.1	 1.02204	 100.0	 1	 2000.0	 666.67	 0.0	 0.0	 0.0	 0.0	 0.0	 0.0	 0.0	 0.0	 0.0	 0.0	 0.0;
	1685	 22.628	 5.56	 57.41	 -17.22	 1.02211	 100.0	 1	 120.0	 0.0	 0.0	 0.0	 0.0	 0.0	 0.0	 0.0	 0.0	 0.0	 0.0	 0.0	 0.0;
	1697	 100.0	 -31.209	 31.94	 -31.24	 1.09327	 100.0	 1	 100.0	 -252.0	 0.0	 0.0	 0.0	 0.0	 0.0	 0.0	 0.0	 0.0	 0.0	 0.0	 0.0;
	1708	 1000.0	 167.169	 439.37	 -173.3	 1.0727	 100.0	 1	 1000.0	 333.33	 0.0	 0.0	 0.0	 0.0	 0.0	 0.0	 0.0	 0.0	 0.0	 0.0	 0.0;
	1721	 5.607	 -2.153	 18.52	 -6.39	 1.08105	 100.0	 1	 40.0	 0.0	 0.0	 0.0	 0.0	 0.0	 0.0	 0.0	 0.0	 0.0	 0.0	 0.0	 0.0;
	1747	 900.0	 305.204	 387.67	 -163.73	 1.09305	 100.0	 1	 900.0	 300.0	 0.0	 0.0	 0.0	 0.0	 0.0	 0.0	 0.0	 0.0	 0.0	 0.0	 0.0;
	1754	 41.06	 16.99	 16.99	 -7.92	 1.05719	 100.0	 1	 41.06	 0.0	 0.0	 0.0	 0.0	 0.0	 0.0	 0.0	 0.0	 0.0	 0.0	 0.0	 0.0;
	1788	 600.0	 131.589	 272.25	 -94.92	 1.04978	 100.0	 1	 600.0	 200.0	 0.0	 0.0	 0.0	 0.0	 0.0	 0.0	 0.0	 0.0	 0.0	 0.0	 0.0;
	1793	 100.0	 -15.144	 34.64	 -15.2	 1.061	 100.0	 1	 100.0	 -120.4	 0.0	 0.0	 0.0	 0.0	 0.0	 0.0	 0.0	 0.0	 0.0	 0.0	 0.0;
	1794	 742.889	 -18.938	 926.35	 -297.68	 1.01796	 100.0	 1	 2000.0	 666.67	 0.0	 0.0	 0.0	 0.0	 0.0	 0.0	 0.0	 0.0	 0.0	 0.0	 0.0;
	1808	 37.589	 13.041	 111.23	 -38.16	 1.08333	 100.0	 1	 100.0	 -0.8	 0.0	 0.0	 0.0	 0.0	 0.0	 0.0	 0.0	 0.0	 0.0	 0.0	 0.0;
	1850	 32.97	 11.52	 11.52	 -10.09	 1.06498	 100.0	 1	 32.97	 0.0	 0.0	 0.0	 0.0	 0.0	 0.0	 0.0	 0.0	 0.0	 0.0	 0.0	 0.0;
	1851	 0.0	 -8.889	 11.76	 -8.89	 1.09676	 100.0	 1	 31.92	 0.0	 0.0	 0.0	 0.0	 0.0	 0.0	 0.0	 0.0	 0.0	 0.0	 0.0	 0.0;
	1852	 100.0	 53.636	 58.16	 -16.52	 1.09688	 100.0	 1	 100.0	 -322.4	 0.0	 0.0	 0.0	 0.0	 0.0	 0.0	 0.0	 0.0	 0.0	 0.0	 0.0;
	1888	 459.046	 209.065	 396.02	 -155.83	 1.07211	 100.0	 1	 912.78	 312.78	 0.0	 0.0	 0.0	 0.0	 0.0	 0.0	 0.0	 0.0	 0.0	 0.0	 0.0;
	1890	 533.33	 69.68	 686.73	 -294.62	 1.07376	 100.0	 1	 1600.0	 533.33	 0.0	 0.0	 0.0	 0.0	 0.0	 0.0	 0.0	 0.0	 0.0	 0.0	 0.0;
	1898	 2.69	 -51.25	 133.11	 -51.25	 1.08479	 100.0	 1	 300.0	 0.0	 0.0	 0.0	 0.0	 0.0	 0.0	 0.0	 0.0	 0.0	 0.0	 0.0	 0.0;
	1909	 7.966	 -11.098	 38.67	 -11.1	 1.04457	 100.0	 1	 100.0	 -41.57	 0.0	 0.0	 0.0	 0.0	 0.0	 0.0	 0.0	 0.0	 0.0	 0.0	 0.0;
	1914	 109.0	 0.276	 160.36	 -150.95	 1.09584	 100.0	 1	 472.16	 39.35	 0.0	 0.0	 0.0	 0.0	 0.0	 0.0	 0.0	 0.0	 0.0	 0.0	 0.0;
	1947	 100.0	 2.05	 2.05	 -0.97	 1.09866	 100.0	 1	 100.0	 -22.7	 0.0	 0.0	 0.0	 0.0	 0.0	 0.0	 0.0	 0.0	 0.0	 0.0	 0.0;
	1959	 0.0	 0.0	 18.14	 -6.75	 1.09761	 100.0	 1	 40.0	 0.0	 0.0	 0.0	 0.0	 0.0	 0.0	 0.0	 0.0	 0.0	 0.0	 0.0	 0.0;
	1999	 180.0	 -30.07	 80.51	 -30.07	 1.09994	 100.0	 1	 180.0	 0.0	 0.0	 0.0	 0.0	 0.0	 0.0	 0.0	 0.0	 0.0	 0.0	 0.0	 0.0;
	2030	 600.0	 115.532	 257.0	 -110.85	 1.1	 100.0	 1	 600.0	 200.0	 0.0	 0.0	 0.0	 0.0	 0.0	 0.0	 0.0	 0.0	 0.0	 0.0	 0.0;
	2035	 584.612	 112.873	 441.85	 -171.27	 1.04148	 100.0	 1	 1000.0	 333.33	 0.0	 0.0	 0.0	 0.0	 0.0	 0.0	 0.0	 0.0	 0.0	 0.0	 0.0;
	2050	 666.67	 150.699	 962.2	 -263.65	 1.06862	 100.0	 1	 2000.0	 666.67	 0.0	 0.0	 0.0	 0.0	 0.0	 0.0	 0.0	 0.0	 0.0	 0.0	 0.0;
	2085	 200.0	 -36.182	 88.39	 -36.19	 1.03254	 100.0	 1	 200.0	 0.0	 0.0	 0.0	 0.0	 0.0	 0.0	 0.0	 0.0	 0.0	 0.0	 0.0	 0.0;
	2091	 0.001	 -0.103	 17.88	 -7.04	 1.0387	 100.0	 1	 40.0	 0.0	 0.0	 0.0	 0.0	 0.0	 0.0	 0.0	 0.0	 0.0	 0.0	 0.0	 0.0;
	2096	 1199.999	 -136.822	 522.74	 -212.37	 1.08745	 100.0	 1	 1200.0	 400.0	 0.0	 0.0	 0.0	 0.0	 0.0	 0.0	 0.0	 0.0	 0.0	 0.0	 0.0;
	2107	 1500.0	 661.899	 661.9	 -257.62	 1.06533	 100.0	 1	 1500.0	 500.0	 0.0	 0.0	 0.0	 0.0	 0.0	 0.0	 0.0	 0.0	 0.0	 0.0	 0.0;
	2150	 410.941	 59.278	 266.17	 -101.5	 1.1	 100.0	 1	 600.0	 200.0	 0.0	 0.0	 0.0	 0.0	 0.0	 0.0	 0.0	 0.0	 0.0	 0.0	 0.0;
	2177	 100.0	 -16.26	 58.35	 -16.26	 1.08491	 100.0	 1	 100.0	 -161.73	 0.0	 0.0	 0.0	 0.0	 0.0	 0.0	 0.0	 0.0	 0.0	 0.0	 0.0;
	2193	 16.12	 -2.559	 7.47	 -2.56	 1.05941	 100.0	 1	 16.12	 0.0	 0.0	 0.0	 0.0	 0.0	 0.0	 0.0	 0.0	 0.0	 0.0	 0.0	 0.0;
	2197	 100.0	 -14.739	 19.51	 -14.74	 1.07272	 100.0	 1	 100.0	 -71.05	 0.0	 0.0	 0.0	 0.0	 0.0	 0.0	 0.0	 0.0	 0.0	 0.0	 0.0;
	2206	 100.0	 10.605	 137.29	 -46.58	 1.02731	 100.0	 1	 300.0	 100.0	 0.0	 0.0	 0.0	 0.0	 0.0	 0.0	 0.0	 0.0	 0.0	 0.0	 0.0;
	2225	 -52.957	 -1.04	 2.27	 -1.04	 1.07062	 100.0	 1	 100.0	 -111.33	 0.0	 0.0	 0.0	 0.0	 0.0	 0.0	 0.0	 0.0	 0.0	 0.0	 0.0;
	2236	 20.538	 -1.07	 2.23	 -1.07	 1.06611	 100.0	 1	 100.0	 -51.26	 0.0	 0.0	 0.0	 0.0	 0.0	 0.0	 0.0	 0.0	 0.0	 0.0	 0.0;
	2267	 470.948	 160.83	 228.16	 -78.83	 1.05113	 100.0	 1	 500.0	 166.67	 0.0	 0.0	 0.0	 0.0	 0.0	 0.0	 0.0	 0.0	 0.0	 0.0	 0.0;
	2276	 0.045	 -0.056	 41.67	 -36.5	 1.09999	 100.0	 1	 119.3	 0.0	 0.0	 0.0	 0.0	 0.0	 0.0	 0.0	 0.0	 0.0	 0.0	 0.0	 0.0;
	2291	 84.197	 -28.93	 95.69	 -28.93	 1.09225	 100.0	 1	 200.0	 0.0	 0.0	 0.0	 0.0	 0.0	 0.0	 0.0	 0.0	 0.0	 0.0	 0.0	 0.0;
	2335	 467.196	 114.405	 273.49	 -94.1	 1.06794	 100.0	 1	 600.0	 200.0	 0.0	 0.0	 0.0	 0.0	 0.0	 0.0	 0.0	 0.0	 0.0	 0.0	 0.0;
	2359	 80.0	 21.443	 34.35	 -15.5	 1.07397	 100.0	 1	 80.0	 0.0	 0.0	 0.0	 0.0	 0.0	 0.0	 0.0	 0.0	 0.0	 0.0	 0.0	 0.0;
	2412	 26.125	 -5.202	 134.54	 -136.29	 1.05981	 100.0	 1	 409.09	 0.0	 0.0	 0.0	 0.0	 0.0	 0.0	 0.0	 0.0	 0.0	 0.0	 0.0	 0.0;
	2421	 100.0	 -12.45	 37.39	 -12.45	 1.07446	 100.0	 1	 100.0	 -427.2	 0.0	 0.0	 0.0	 0.0	 0.0	 0.0	 0.0	 0.0	 0.0	 0.0	 0.0;
	2425	 100.0	 20.848	 54.3	 -20.49	 1.03217	 100.0	 1	 100.0	 -134.0	 0.0	 0.0	 0.0	 0.0	 0.0	 0.0	 0.0	 0.0	 0.0	 0.0	 0.0;
	2426	 100.0	 1.454	 105.34	 -99.02	 1.09864	 100.0	 1	 100.0	 -57.6	 0.0	 0.0	 0.0	 0.0	 0.0	 0.0	 0.0	 0.0	 0.0	 0.0	 0.0;
	2446	 666.67	 -23.94	 921.62	 -304.73	 1.03336	 100.0	 1	 2000.0	 666.67	 0.0	 0.0	 0.0	 0.0	 0.0	 0.0	 0.0	 0.0	 0.0	 0.0	 0.0;
	2460	 80.0	 36.592	 38.01	 -11.74	 1.00856	 100.0	 1	 80.0	 0.0	 0.0	 0.0	 0.0	 0.0	 0.0	 0.0	 0.0	 0.0	 0.0	 0.0	 0.0;
	2468	 4.091	 -2.325	 38.02	 -11.81	 1.09925	 100.0	 1	 80.0	 0.0	 0.0	 0.0	 0.0	 0.0	 0.0	 0.0	 0.0	 0.0	 0.0	 0.0	 0.0;
	2481	 80.0	 0.436	 39.12	 -10.71	 1.09414	 100.0	 1	 80.0	 0.0	 0.0	 0.0	 0.0	 0.0	 0.0	 0.0	 0.0	 0.0	 0.0	 0.0	 0.0;
	2489	 55.052	 32.906	 162.4	 -61.79	 1.08078	 100.0	 1	 360.0	 0.0	 0.0	 0.0	 0.0	 0.0	 0.0	 0.0	 0.0	 0.0	 0.0	 0.0	 0.0;
	2517	 19.486	 -3.825	 78.13	 -77.07	 1.0702	 100.0	 1	 234.52	 0.0	 0.0	 0.0	 0.0	 0.0	 0.0	 0.0	 0.0	 0.0	 0.0	 0.0	 0.0;
	2550	 0.021	 -4.342	 58.23	 -16.49	 1.09955	 100.0	 1	 120.0	 0.0	 0.0	 0.0	 0.0	 0.0	 0.0	 0.0	 0.0	 0.0	 0.0	 0.0	 0.0;
	2572	 286.747	 81.027	 276.19	 -91.63	 1.1	 100.0	 1	 600.0	 200.0	 0.0	 0.0	 0.0	 0.0	 0.0	 0.0	 0.0	 0.0	 0.0	 0.0	 0.0;
	2600	 160.0	 0.661	 76.08	 -23.59	 1.09987	 100.0	 1	 160.0	 0.0	 0.0	 0.0	 0.0	 0.0	 0.0	 0.0	 0.0	 0.0	 0.0	 0.0	 0.0;
	2627	 666.67	 -31.707	 921.52	 -304.79	 1.03254	 100.0	 1	 2000.0	 666.67	 0.0	 0.0	 0.0	 0.0	 0.0	 0.0	 0.0	 0.0	 0.0	 0.0	 0.0;
	2642	 1634.729	 78.88	 848.76	 -377.67	 1.1	 100.0	 1	 2000.0	 666.67	 0.0	 0.0	 0.0	 0.0	 0.0	 0.0	 0.0	 0.0	 0.0	 0.0	 0.0;
	2653	 120.0	 -22.8	 51.94	 -22.8	 1.05767	 100.0	 1	 120.0	 0.0	 0.0	 0.0	 0.0	 0.0	 0.0	 0.0	 0.0	 0.0	 0.0	 0.0	 0.0;
	2658	 517.067	 29.635	 124.68	 -59.39	 1.09245	 100.0	 1	 700.0	 200.0	 0.0	 0.0	 0.0	 0.0	 0.0	 0.0	 0.0	 0.0	 0.0	 0.0	 0.0;
	2660	 49.602	 -1.892	 79.69	 -30.77	 1.02072	 100.0	 1	 180.0	 0.0	 0.0	 0.0	 0.0	 0.0	 0.0	 0.0	 0.0	 0.0	 0.0	 0.0	 0.0;
	2686	 -51.914	 -69.899	 69.01	 -69.9	 1.06006	 100.0	 1	 100.0	 -97.2	 0.0	 0.0	 0.0	 0.0	 0.0	 0.0	 0.0	 0.0	 0.0	 0.0	 0.0;
	2719	 196.719	 -0.464	 70.15	 -58.1	 1.1	 100.0	 1	 196.72	 0.0	 0.0	 0.0	 0.0	 0.0	 0.0	 0.0	 0.0	 0.0	 0.0	 0.0	 0.0;
	2764	 900.0	 -134.5	 416.7	 -134.5	 1.08898	 100.0	 1	 900.0	 300.0	 0.0	 0.0	 0.0	 0.0	 0.0	 0.0	 0.0	 0.0	 0.0	 0.0	 0.0;
	2786	 666.67	 113.973	 934.81	 -291.47	 1.06247	 100.0	 1	 2000.0	 666.67	 0.0	 0.0	 0.0	 0.0	 0.0	 0.0	 0.0	 0.0	 0.0	 0.0	 0.0;
	2797	 69.669	 22.915	 88.33	 -36.33	 1.08835	 100.0	 1	 100.0	 -126.8	 0.0	 0.0	 0.0	 0.0	 0.0	 0.0	 0.0	 0.0	 0.0	 0.0	 0.0;
	2799	 0.0	 -0.001	 77.91	 -21.66	 1.09626	 100.0	 1	 160.0	 0.0	 0.0	 0.0	 0.0	 0.0	 0.0	 0.0	 0.0	 0.0	 0.0	 0.0	 0.0;
	2800	 1200.0	 46.658	 525.34	 -209.84	 1.09496	 100.0	 1	 1200.0	 400.0	 0.0	 0.0	 0.0	 0.0	 0.0	 0.0	 0.0	 0.0	 0.0	 0.0	 0.0;
	2816	 712.753	 -6.642	 926.26	 -297.74	 1.01941	 100.0	 1	 2000.0	 666.67	 0.0	 0.0	 0.0	 0.0	 0.0	 0.0	 0.0	 0.0	 0.0	 0.0	 0.0;
	2817	 80.0	 16.053	 34.8	 -14.94	 1.02092	 100.0	 1	 80.0	 0.0	 0.0	 0.0	 0.0	 0.0	 0.0	 0.0	 0.0	 0.0	 0.0	 0.0	 0.0;
	2841	 0.093	 -11.1	 55.98	 -18.76	 1.07614	 100.0	 1	 120.0	 0.0	 0.0	 0.0	 0.0	 0.0	 0.0	 0.0	 0.0	 0.0	 0.0	 0.0	 0.0;
	2842	 39.966	 7.854	 18.19	 -6.74	 1.07692	 100.0	 1	 40.0	 0.0	 0.0	 0.0	 0.0	 0.0	 0.0	 0.0	 0.0	 0.0	 0.0	 0.0	 0.0;
	2853	 131.101	 -6.846	 72.02	 -27.47	 1.02128	 100.0	 1	 160.0	 0.0	 0.0	 0.0	 0.0	 0.0	 0.0	 0.0	 0.0	 0.0	 0.0	 0.0	 0.0;
	2872	 9.05	 -2.539	 3.31	 -2.54	 1.09013	 100.0	 1	 9.05	 0.0	 0.0	 0.0	 0.0	 0.0	 0.0	 0.0	 0.0	 0.0	 0.0	 0.0	 0.0;
	2878	 214.86	 11.753	 72.95	 -68.71	 1.09276	 100.0	 1	 214.86	 0.0	 0.0	 0.0	 0.0	 0.0	 0.0	 0.0	 0.0	 0.0	 0.0	 0.0	 0.0;
	2886	 1.768	 -15.631	 57.69	 -17.02	 1.08951	 100.0	 1	 120.0	 0.0	 0.0	 0.0	 0.0	 0.0	 0.0	 0.0	 0.0	 0.0	 0.0	 0.0	 0.0;
	2896	 100.0	 1.52	 1.52	 -0.73	 1.04833	 100.0	 1	 100.0	 -297.87	 0.0	 0.0	 0.0	 0.0	 0.0	 0.0	 0.0	 0.0	 0.0	 0.0	 0.0;
	2902	 0.022	 -3.167	 19.19	 -5.72	 1.09998	 100.0	 1	 40.0	 0.0	 0.0	 0.0	 0.0	 0.0	 0.0	 0.0	 0.0	 0.0	 0.0	 0.0	 0.0;
	2930	 0.0	 -12.539	 37.24	 -12.54	 1.09673	 100.0	 1	 80.0	 0.0	 0.0	 0.0	 0.0	 0.0	 0.0	 0.0	 0.0	 0.0	 0.0	 0.0	 0.0;
	2934	 0.013	 -0.002	 2.51	 -1.91	 1.09954	 100.0	 1	 6.83	 0.0	 0.0	 0.0	 0.0	 0.0	 0.0	 0.0	 0.0	 0.0	 0.0	 0.0	 0.0;
	2946	 100.0	 1.669	 1.83	 -0.87	 1.06492	 100.0	 1	 100.0	 -296.13	 0.0	 0.0	 0.0	 0.0	 0.0	 0.0	 0.0	 0.0	 0.0	 0.0	 0.0;
	2985	 36.414	 -3.847	 184.46	 -132.67	 1.08829	 100.0	 1	 493.35	 0.0	 0.0	 0.0	 0.0	 0.0	 0.0	 0.0	 0.0	 0.0	 0.0	 0.0	 0.0;
	3018	 0.0	 -6.799	 89.61	 -34.82	 1.09646	 100.0	 1	 200.0	 0.0	 0.0	 0.0	 0.0	 0.0	 0.0	 0.0	 0.0	 0.0	 0.0	 0.0	 0.0;
	3028	 539.642	 103.276	 441.85	 -171.27	 1.04115	 100.0	 1	 1000.0	 333.33	 0.0	 0.0	 0.0	 0.0	 0.0	 0.0	 0.0	 0.0	 0.0	 0.0	 0.0;
	3054	 400.0	 167.72	 167.72	 -77.11	 1.03845	 100.0	 1	 400.0	 133.33	 0.0	 0.0	 0.0	 0.0	 0.0	 0.0	 0.0	 0.0	 0.0	 0.0	 0.0;
	3113	 -27.07	 -20.99	 22.39	 -20.99	 1.09563	 100.0	 1	 100.0	 -27.07	 0.0	 0.0	 0.0	 0.0	 0.0	 0.0	 0.0	 0.0	 0.0	 0.0	 0.0;
	3114	 19.836	 -7.61	 17.33	 -7.61	 1.09415	 100.0	 1	 40.0	 0.0	 0.0	 0.0	 0.0	 0.0	 0.0	 0.0	 0.0	 0.0	 0.0	 0.0	 0.0;
	3133	 20.299	 -29.848	 113.97	 -35.56	 1.08663	 100.0	 1	 240.0	 0.0	 0.0	 0.0	 0.0	 0.0	 0.0	 0.0	 0.0	 0.0	 0.0	 0.0	 0.0;
	3134	 58.248	 24.488	 70.25	 -29.33	 1.09666	 100.0	 1	 100.0	 -181.73	 0.0	 0.0	 0.0	 0.0	 0.0	 0.0	 0.0	 0.0	 0.0	 0.0	 0.0;
	3150	 100.0	 -5.1	 6.66	 -5.1	 1.06604	 100.0	 1	 100.0	 -41.79	 0.0	 0.0	 0.0	 0.0	 0.0	 0.0	 0.0	 0.0	 0.0	 0.0	 0.0;
	3157	 2.445	 -5.119	 6.78	 -5.13	 1.04105	 100.0	 1	 18.41	 0.0	 0.0	 0.0	 0.0	 0.0	 0.0	 0.0	 0.0	 0.0	 0.0	 0.0	 0.0;
	3163	 111.657	 4.368	 67.92	 -69.02	 1.06152	 100.0	 1	 206.86	 0.0	 0.0	 0.0	 0.0	 0.0	 0.0	 0.0	 0.0	 0.0	 0.0	 0.0	 0.0;
	3183	 0.0	 -0.0	 53.7	 -20.98	 1.09626	 100.0	 1	 120.0	 0.0	 0.0	 0.0	 0.0	 0.0	 0.0	 0.0	 0.0	 0.0	 0.0	 0.0	 0.0;
	3205	 409.909	 82.149	 243.61	 -88.46	 1.05897	 100.0	 1	 540.0	 0.0	 0.0	 0.0	 0.0	 0.0	 0.0	 0.0	 0.0	 0.0	 0.0	 0.0	 0.0;
	3218	 88.369	 12.739	 36.79	 -13.0	 1.09501	 100.0	 1	 100.0	 -143.2	 0.0	 0.0	 0.0	 0.0	 0.0	 0.0	 0.0	 0.0	 0.0	 0.0	 0.0;
	3233	 393.321	 84.369	 178.47	 -79.11	 1.07077	 100.0	 1	 420.0	 0.0	 0.0	 0.0	 0.0	 0.0	 0.0	 0.0	 0.0	 0.0	 0.0	 0.0	 0.0;
	3240	 -56.4	 7.662	 62.23	 -51.37	 1.08638	 100.0	 1	 100.0	 -56.4	 0.0	 0.0	 0.0	 0.0	 0.0	 0.0	 0.0	 0.0	 0.0	 0.0	 0.0;
	3291	 329.434	 -69.855	 229.0	 -77.02	 1.07103	 100.0	 1	 500.0	 166.67	 0.0	 0.0	 0.0	 0.0	 0.0	 0.0	 0.0	 0.0	 0.0	 0.0	 0.0;
	3306	 333.33	 -24.083	 439.2	 -173.43	 1.06658	 100.0	 1	 1000.0	 333.33	 0.0	 0.0	 0.0	 0.0	 0.0	 0.0	 0.0	 0.0	 0.0	 0.0	 0.0;
	3324	 100.0	 38.13	 38.13	 -11.64	 1.082	 100.0	 1	 100.0	 -35.3	 0.0	 0.0	 0.0	 0.0	 0.0	 0.0	 0.0	 0.0	 0.0	 0.0	 0.0;
	3334	 -60.67	 34.409	 34.41	 -15.34	 1.05792	 100.0	 1	 100.0	 -60.67	 0.0	 0.0	 0.0	 0.0	 0.0	 0.0	 0.0	 0.0	 0.0	 0.0	 0.0;
	3335	 -438.885	 367.502	 99999.0	 -99999.0	 1.0629	 100.0	 1	 630.0	 -630.0	 0.0	 0.0	 0.0	 0.0	 0.0	 0.0	 0.0	 0.0	 0.0	 0.0	 0.0;
	3346	 80.0	 37.1	 37.1	 -12.76	 1.05111	 100.0	 1	 80.0	 0.0	 0.0	 0.0	 0.0	 0.0	 0.0	 0.0	 0.0	 0.0	 0.0	 0.0	 0.0;
	3353	 0.0	 -3.146	 38.2	 -11.61	 1.08734	 100.0	 1	 80.0	 0.0	 0.0	 0.0	 0.0	 0.0	 0.0	 0.0	 0.0	 0.0	 0.0	 0.0	 0.0;
	3364	 0.0	 -0.002	 47.19	 -41.44	 1.09626	 100.0	 1	 135.27	 0.0	 0.0	 0.0	 0.0	 0.0	 0.0	 0.0	 0.0	 0.0	 0.0	 0.0	 0.0;
	3390	 120.0	 54.59	 54.59	 -20.19	 1.06866	 100.0	 1	 120.0	 0.0	 0.0	 0.0	 0.0	 0.0	 0.0	 0.0	 0.0	 0.0	 0.0	 0.0	 0.0;
	3416	 0.177	 0.17	 76.43	 -34.12	 1.01296	 100.0	 1	 180.0	 0.0	 0.0	 0.0	 0.0	 0.0	 0.0	 0.0	 0.0	 0.0	 0.0	 0.0	 0.0;
	3422	 0.0	 -2.457	 58.19	 -16.5	 1.09762	 100.0	 1	 120.0	 0.0	 0.0	 0.0	 0.0	 0.0	 0.0	 0.0	 0.0	 0.0	 0.0	 0.0	 0.0;
	3436	 1200.0	 100.253	 550.97	 -184.89	 1.08957	 100.0	 1	 1200.0	 400.0	 0.0	 0.0	 0.0	 0.0	 0.0	 0.0	 0.0	 0.0	 0.0	 0.0	 0.0;
	3492	 85.894	 3.396	 53.75	 -21.08	 1.09864	 100.0	 1	 100.0	 -494.4	 0.0	 0.0	 0.0	 0.0	 0.0	 0.0	 0.0	 0.0	 0.0	 0.0	 0.0;
	3513	 838.014	 123.243	 387.88	 -163.4	 1.07015	 100.0	 1	 900.0	 300.0	 0.0	 0.0	 0.0	 0.0	 0.0	 0.0	 0.0	 0.0	 0.0	 0.0	 0.0;
	3565	 4.7	 -10.97	 38.83	 -10.97	 1.07668	 100.0	 1	 80.0	 0.0	 0.0	 0.0	 0.0	 0.0	 0.0	 0.0	 0.0	 0.0	 0.0	 0.0	 0.0;
	3580	 600.0	 127.38	 261.7	 -107.36	 1.09253	 100.0	 1	 600.0	 0.0	 0.0	 0.0	 0.0	 0.0	 0.0	 0.0	 0.0	 0.0	 0.0	 0.0	 0.0;
	3582	 100.0	 -52.04	 52.83	 -52.04	 1.08245	 100.0	 1	 100.0	 -429.07	 0.0	 0.0	 0.0	 0.0	 0.0	 0.0	 0.0	 0.0	 0.0	 0.0	 0.0;
	3584	 55.978	 -0.491	 19.8	 -15.12	 1.06392	 100.0	 1	 100.0	 -117.87	 0.0	 0.0	 0.0	 0.0	 0.0	 0.0	 0.0	 0.0	 0.0	 0.0	 0.0;
	3585	 80.0	 30.266	 37.43	 -12.32	 1.03964	 100.0	 1	 80.0	 0.0	 0.0	 0.0	 0.0	 0.0	 0.0	 0.0	 0.0	 0.0	 0.0	 0.0	 0.0;
...
];

%% generator cost data
%	2	startup	shutdown	n	c(n-1)	...	c0
mpc.gencost = [
	2	 0.0	 0.0	 3	   0.000000	   1.000000	   0.000000;
	2	 0.0	 0.0	 3	   0.000000	   1.000000	   0.000000;
	2	 0.0	 0.0	 3	   0.000000	   1.000000	   0.000000;
	2	 0.0	 0.0	 3	   0.000000	   1.000000	   0.000000;
	2	 0.0	 0.0	 3	   0.000000	   1.000000	   0.000000;
	2	 0.0	 0.0	 3	   0.000000	   1.000000	   0.000000;
	2	 0.0	 0.0	 3	   0.000000	   1.000000	   0.000000;
	2	 0.0	 0.0	 3	   0.000000	   1.000000	   0.000000;
	2	 0.0	 0.0	 3	   0.000000	   1.000000	   0.000000;
	2	 0.0	 0.0	 3	   0.000000	   1.000000	   0.000000;
	2	 0.0	 0.0	 3	   0.000000	   1.000000	   0.000000;
	2	 0.0	 0.0	 3	   0.000000	   1.000000	   0.000000;
	2	 0.0	 0.0	 3	   0.000000	   1.000000	   0.000000;
	2	 0.0	 0.0	 3	   0.000000	   1.000000	   0.000000;
	2	 0.0	 0.0	 3	   0.000000	   1.000000	   0.000000;
	2	 0.0	 0.0	 3	   0.000000	   1.000000	   0.000000;
	2	 0.0	 0.0	 3	   0.000000	   1.000000	   0.000000;
	2	 0.0	 0.0	 3	   0.000000	   1.000000	   0.000000;
	2	 0.0	 0.0	 3	   0.000000	   1.000000	   0.000000;
	2	 0.0	 0.0	 3	   0.000000	   1.000000	   0.000000;
	2	 0.0	 0.0	 3	   0.000000	   1.000000	   0.000000;
	2	 0.0	 0.0	 3	   0.000000	   1.000000	   0.000000;
	2	 0.0	 0.0	 3	   0.000000	   1.000000	   0.000000;
	2	 0.0	 0.0	 3	   0.000000	   1.000000	   0.000000;
	2	 0.0	 0.0	 3	   0.000000	   1.000000	   0.000000;
	2	 0.0	 0.0	 3	   0.000000	   1.000000	   0.000000;
	2	 0.0	 0.0	 3	   0.000000	   1.000000	   0.000000;
	2	 0.0	 0.0	 3	   0.000000	   1.000000	   0.000000;
	2	 0.0	 0.0	 3	   0.000000	   1.000000	   0.000000;
	2	 0.0	 0.0	 3	   0.000000	   1.000000	   0.000000;
	2	 0.0	 0.0	 3	   0.000000	   1.000000	   0.000000;
	2	 0.0	 0.0	 3	   0.000000	   1.000000	   0.000000;
	2	 0.0	 0.0	 3	   0.000000	   1.000000	   0.000000;
	2	 0.0	 0.0	 3	   0.000000	   1.000000	   0.000000;
	2	 0.0	 0.0	 3	   0.000000	   1.000000	   0.000000;
	2	 0.0	 0.0	 3	   0.000000	   1.000000	   0.000000;
	2	 0.0	 0.0	 3	   0.000000	   1.000000	   0.000000;
	2	 0.0	 0.0	 3	   0.000000	   1.000000	   0.000000;
	2	 0.0	 0.0	 3	   0.000000	   1.000000	   0.000000;
	2	 0.0	 0.0	 3	   0.000000	   1.000000	   0.000000;
	2	 0.0	 0.0	 3	   0.000000	   1.000000	   0.000000;
	2	 0.0	 0.0	 3	   0.000000	   1.000000	   0.000000;
	2	 0.0	 0.0	 3	   0.000000	   1.000000	   0.000000;
	2	 0.0	 0.0	 3	   0.000000	   1.000000	   0.000000;
	2	 0.0	 0.0	 3	   0.000000	   1.000000	   0.000000;
	2	 0.0	 0.0	 3	   0.000000	   1.000000	   0.000000;
	2	 0.0	 0.0	 3	   0.000000	   1.000000	   0.000000;
	2	 0.0	 0.0	 3	   0.000000	   1.000000	   0.000000;
	2	 0.0	 0.0	 3	   0.000000	   1.000000	   0.000000;
	2	 0.0	 0.0	 3	   0.000000	   1.000000	   0.000000;
	2	 0.0	 0.0	 3	   0.000000	   1.000000	   0.000000;
	2	 0.0	 0.0	 3	   0.000000	   1.000000	   0.000000;
	2	 0.0	 0.0	 3	   0.000000	   1.000000	   0.000000;
	2	 0.0	 0.0	 3	   0.000000	   1.000000	   0.000000;
	2	 0.0	 0.0	 3	   0.000000	   1.000000	   0.000000;
	2	 0.0	 0.0	 3	   0.000000	   1.000000	   0.000000;
	2	 0.0	 0.0	 3	   0.000000	   1.000000	   0.000000;
	2	 0.0	 0.0	 3	   0.000000	   1.000000	   0.000000;
	2	 0.0	 0.0	 3	   0.000000	   1.000000	   0.000000;
	2	 0.0	 0.0	 3	   0.000000	   1.000000	   0.000000;
	2	 0.0	 0.0	 3	   0.000000	   1.000000	   0.000000;
	2	 0.0	 0.0	 3	   0.000000	   1.000000	   0.000000;
	2	 0.0	 0.0	 3	   0.000000	   1.000000	   0.000000;
	2	 0.0	 0.0	 3	   0.000000	   1.000000	   0.000000;
	2	 0.0	 0.0	 3	   0.000000	   1.000000	   0.000000;
	2	 0.0	 0.0	 3	   0.000000	   1.000000	   0.000000;
	2	 0.0	 0.0	 3	   0.000000	   1.000000	   0.000000;
	2	 0.0	 0.0	 3	   0.000000	   1.000000	   0.000000;
	2	 0.0	 0.0	 3	   0.000000	   1.000000	   0.000000;
	2	 0.0	 0.0	 3	   0.000000	   1.000000	   0.000000;
	2	 0.0	 0.0	 3	   0.000000	   1.000000	   0.000000;
	2	 0.0	 0.0	 3	   0.000000	   1.000000	   0.000000;
	2	 0.0	 0.0	 3	   0.000000	   1.000000	   0.000000;
	2	 0.0	 0.0	 3	   0.000000	   1.000000	   0.000000;
	2	 0.0	 0.0	 3	   0.000000	   1.000000	   0.000000;
	2	 0.0	 0.0	 3	   0.000000	   1.000000	   0.000000;
	2	 0.0	 0.0	 3	   0.000000	   1.000000	   0.000000;
	2	 0.0	 0.0	 3	   0.000000	   1.000000	   0.000000;
	2	 0.0	 0.0	 3	   0.000000	   1.000000	   0.000000;
	2	 0.0	 0.0	 3	   0.000000	   1.000000	   0.000000;
	2	 0.0	 0.0	 3	   0.000000	   1.000000	   0.000000;
	2	 0.0	 0.0	 3	   0.000000	   1.000000	   0.000000;
	2	 0.0	 0.0	 3	   0.000000	   1.000000	   0.000000;
	2	 0.0	 0.0	 3	   0.000000	   1.000000	   0.000000;
	2	 0.0	 0.0	 3	   0.000000	   1.000000	   0.000000;
	2	 0.0	 0.0	 3	   0.000000	   1.000000	   0.000000;
	2	 0.0	 0.0	 3	   0.000000	   1.000000	   0.000000;
	2	 0.0	 0.0	 3	   0.000000	   1.000000	   0.000000;
	2	 0.0	 0.0	 3	   0.000000	   1.000000	   0.000000;
	2	 0.0	 0.0	 3	   0.000000	   1.000000	   0.000000;
	2	 0.0	 0.0	 3	   0.000000	   1.000000	   0.000000;
	2	 0.0	 0.0	 3	   0.000000	   1.000000	   0.000000;
	2	 0.0	 0.0	 3	   0.000000	   1.000000	   0.000000;
	2	 0.0	 0.0	 3	   0.000000	   1.000000	   0.000000;
	2	 0.0	 0.0	 3	   0.000000	   1.000000	   0.000000;
	2	 0.0	 0.0	 3	   0.000000	   1.000000	   0.000000;
	2	 0.0	 0.0	 3	   0.000000	   1.000000	   0.000000;
	2	 0.0	 0.0	 3	   0.000000	   1.000000	   0.000000;
	2	 0.0	 0.0	 3	   0.000000	   1.000000	   0.000000;
	2	 0.0	 0.0	 3	   0.000000	   1.000000	   0.000000;
	2	 0.0	 0.0	 3	   0.000000	   1.000000	   0.000000;
	2	 0.0	 0.0	 3	   0.000000	   1.000000	   0.000000;
	2	 0.0	 0.0	 3	   0.000000	   1.000000	   0.000000;
	2	 0.0	 0.0	 3	   0.000000	   1.000000	   0.000000;
	2	 0.0	 0.0	 3	   0.000000	   1.000000	   0.000000;
	2	 0.0	 0.0	 3	   0.000000	   1.000000	   0.000000;
	2	 0.0	 0.0	 3	   0.000000	   1.000000	   0.000000;
	2	 0.0	 0.0	 3	   0.000000	   1.000000	   0.000000;
	2	 0.0	 0.0	 3	   0.000000	   1.000000	   0.000000;
	2	 0.0	 0.0	 3	   0.000000	   1.000000	   0.000000;
	2	 0.0	 0.0	 3	   0.000000	   1.000000	   0.000000;
	2	 0.0	 0.0	 3	   0.000000	   1.000000	   0.000000;
	2	 0.0	 0.0	 3	   0.000000	   1.000000	   0.000000;
	2	 0.0	 0.0	 3	   0.000000	   1.000000	   0.000000;
	2	 0.0	 0.0	 3	   0.000000	   1.000000	   0.000000;
	2	 0.0	 0.0	 3	   0.000000	   1.000000	   0.000000;
	2	 0.0	 0.0	 3	   0.000000	   1.000000	   0.000000;
	2	 0.0	 0.0	 3	   0.000000	   1.000000	   0.000000;
	2	 0.0	 0.0	 3	   0.000000	   1.000000	   0.000000;
	2	 0.0	 0.0	 3	   0.000000	   1.000000	   0.000000;
	2	 0.0	 0.0	 3	   0.000000	   1.000000	   0.000000;
	2	 0.0	 0.0	 3	   0.000000	   1.000000	   0.000000;
	2	 0.0	 0.0	 3	   0.000000	   1.000000	   0.000000;
	2	 0.0	 0.0	 3	   0.000000	   1.000000	   0.000000;
	2	 0.0	 0.0	 3	   0.000000	   1.000000	   0.000000;
	2	 0.0	 0.0	 3	   0.000000	   1.000000	   0.000000;
	2	 0.0	 0.0	 3	   0.000000	   1.000000	   0.000000;
	2	 0.0	 0.0	 3	   0.000000	   1.000000	   0.000000;
	2	 0.0	 0.0	 3	   0.000000	   1.000000	   0.000000;
	2	 0.0	 0.0	 3	   0.000000	   1.000000	   0.000000;
	2	 0.0	 0.0	 3	   0.000000	   1.000000	   0.000000;
	2	 0.0	 0.0	 3	   0.000000	   1.000000	   0.000000;
	2	 0.0	 0.0	 3	   0.000000	   1.000000	   0.000000;
	2	 0.0	 0.0	 3	   0.000000	   1.000000	   0.000000;
	2	 0.0	 0.0	 3	   0.000000	   1.000000	   0.000000;
	2	 0.0	 0.0	 3	   0.000000	   1.000000	   0.000000;
	2	 0.0	 0.0	 3	   0.000000	   1.000000	   0.000000;
	2	 0.0	 0.0	 3	   0.000000	   1.000000	   0.000000;
	2	 0.0	 0.0	 3	   0.000000	   1.000000	   0.000000;
	2	 0.0	 0.0	 3	   0.000000	   1.000000	   0.000000;
	2	 0.0	 0.0	 3	   0.000000	   1.000000	   0.000000;
	2	 0.0	 0.0	 3	   0.000000	   1.000000	   0.000000;
	2	 0.0	 0.0	 3	   0.000000	   1.000000	   0.000000;
	2	 0.0	 0.0	 3	   0.000000	   1.000000	   0.000000;
	2	 0.0	 0.0	 3	   0.000000	   1.000000	   0.000000;
	2	 0.0	 0.0	 3	   0.000000	   1.000000	   0.000000;
	2	 0.0	 0.0	 3	   0.000000	   1.000000	   0.000000;
	2	 0.0	 0.0	 3	   0.000000	   1.000000	   0.000000;
	2	 0.0	 0.0	 3	   0.000000	   1.000000	   0.000000;
	2	 0.0	 0.0	 3	   0.000000	   1.000000	   0.000000;
	2	 0.0	 0.0	 3	   0.000000	   1.000000	   0.000000;
	2	 0.0	 0.0	 3	   0.000000	   1.000000	   0.000000;
	2	 0.0	 0.0	 3	   0.000000	   1.000000	   0.000000;
	2	 0.0	 0.0	 3	   0.000000	   1.000000	   0.000000;
	2	 0.0	 0.0	 3	   0.000000	   1.000000	   0.000000;
	2	 0.0	 0.0	 3	   0.000000	   1.000000	   0.000000;
	2	 0.0	 0.0	 3	   0.000000	   1.000000	   0.000000;
	2	 0.0	 0.0	 3	   0.000000	   1.000000	   0.000000;
	2	 0.0	 0.0	 3	   0.000000	   1.000000	   0.000000;
	2	 0.0	 0.0	 3	   0.000000	   1.000000	   0.000000;
	2	 0.0	 0.0	 3	   0.000000	   1.000000	   0.000000;
	2	 0.0	 0.0	 3	   0.000000	   1.000000	   0.000000;
	2	 0.0	 0.0	 3	   0.000000	   1.000000	   0.000000;
	2	 0.0	 0.0	 3	   0.000000	   1.000000	   0.000000;
	2	 0.0	 0.0	 3	   0.000000	   1.000000	   0.000000;
	2	 0.0	 0.0	 3	   0.000000	   1.000000	   0.000000;
	2	 0.0	 0.0	 3	   0.000000	   1.000000	   0.000000;
	2	 0.0	 0.0	 3	   0.000000	   1.000000	   0.000000;
	2	 0.0	 0.0	 3	   0.000000	   1.000000	   0.000000;
	2	 0.0	 0.0	 3	   0.000000	   1.000000	   0.000000;
	2	 0.0	 0.0	 3	   0.000000	   1.000000	   0.000000;
	2	 0.0	 0.0	 3	   0.000000	   1.000000	   0.000000;
	2	 0.0	 0.0	 3	   0.000000	   1.000000	   0.000000;
	2	 0.0	 0.0	 3	   0.000000	   1.000000	   0.000000;
	2	 0.0	 0.0	 3	   0.000000	   1.000000	   0.000000;
	2	 0.0	 0.0	 3	   0.000000	   1.000000	   0.000000;
	2	 0.0	 0.0	 3	   0.000000	   1.000000	   0.000000;
	2	 0.0	 0.0	 3	   0.000000	   1.000000	   0.000000;
	2	 0.0	 0.0	 3	   0.000000	   1.000000	   0.000000;
	2	 0.0	 0.0	 3	   0.000000	   1.000000	   0.000000;
	2	 0.0	 0.0	 3	   0.000000	   1.000000	   0.000000;
	2	 0.0	 0.0	 3	   0.000000	   1.000000	   0.000000;
	2	 0.0	 0.0	 3	   0.000000	   1.000000	   0.000000;
	2	 0.0	 0.0	 3	   0.000000	   1.000000	   0.000000;
	2	 0.0	 0.0	 3	   0.000000	   1.000000	   0.000000;
	2	 0.0	 0.0	 3	   0.000000	   1.000000	   0.000000;
	2	 0.0	 0.0	 3	   0.000000	   1.000000	   0.000000;
	2	 0.0	 0.0	 3	   0.000000	   1.000000	   0.000000;
	2	 0.0	 0.0	 3	   0.000000	   1.000000	   0.000000;
	2	 0.0	 0.0	 3	   0.000000	   1.000000	   0.000000;
	2	 0.0	 0.0	 3	   0.000000	   1.000000	   0.000000;
	2	 0.0	 0.0	 3	   0.000000	   1.000000	   0.000000;
	2	 0.0	 0.0	 3	   0.000000	   1.000000	   0.000000;
	2	 0.0	 0.0	 3	   0.000000	   1.000000	   0.000000;
	2	 0.0	 0.0	 3	   0.000000	   1.000000	   0.000000;
	2	 0.0	 0.0	 3	   0.000000	   1.000000	   0.000000;
	2	 0.0	 0.0	 3	   0.000000	   1.000000	   0.000000;
	2	 0.0	 0.0	 3	   0.000000	   1.000000	   0.000000;
	2	 0.0	 0.0	 3	   0.000000	   1.000000	   0.000000;
	2	 0.0	 0.0	 3	   0.000000	   1.000000	   0.000000;
...
];

%% branch data
%	fbus	tbus	r	x	b	rateA	rateB	rateC	ratio	angle	status	angmin	angmax
mpc.branch = [
	5147	 3097	 0.0006	 0.00616	 0.0	 823.0	 5104	 5104	 0.0	 0.0	 1	 -30.0	 30.0;
	5147	 8763	 0.0005	 0.0074	 0.0	 921.0	 4259	 4259	 0.0	 0.0	 1	 -30.0	 30.0;
	427	 5425	 7e-05	 0.00057	 0.0	 1711.0	 55004	 55004	 0.0	 0.0	 1	 -30.0	 30.0;
	427	 4704	 6e-05	 0.00056	 0.0	 1514.0	 56085	 56085	 0.0	 0.0	 1	 -30.0	 30.0;
	5960	 7431	 0.003349	 0.01656	 0.0	 1870	 1870	 1870	 0.0	 0.0	 1	 -30.0	 30.0;
	5960	 3186	 0.003409	 0.016211	 0.0	 1907	 1907	 1907	 0.0	 0.0	 1	 -30.0	 30.0;
	4481	 7431	 0.003479	 0.01586	 0.0	 1946	 1946	 1946	 0.0	 0.0	 1	 -30.0	 30.0;
	4481	 3186	 0.003099	 0.017969	 0.0	 1733	 1733	 1733	 0.0	 0.0	 1	 -30.0	 30.0;
	5205	 7833	 0.00236	 0.01418	 0.0	 553.0	 2198	 2198	 0.0	 0.0	 1	 -30.0	 30.0;
	5205	 7770	 0.002169	 0.015909	 0.0	 514.0	 1968	 1968	 0.0	 0.0	 1	 -30.0	 30.0;
	5773	 6542	 0.00014	 0.0012	 0.0	 26146	 26146	 26146	 0.0	 0.0	 1	 -30.0	 30.0;
	5773	 7840	 0.000211	 0.001539	 0.0	 20335	 20335	 20335	 0.0	 0.0	 1	 -30.0	 30.0;
	5214	 6542	 0.000401	 0.004901	 0.0	 6424	 6424	 6424	 0.0	 0.0	 1	 -30.0	 30.0;
	5214	 7840	 0.000219	 0.00151	 0.0	 533.0	 20703	 20703	 0.0	 0.0	 1	 -30.0	 30.0;
	2971	 6069	 0.00052	 0.00407	 0.0	 1481.0	 7699	 7699	 0.0	 0.0	 1	 -30.0	 30.0;
	2971	 3445	 0.00034	 0.00502	 0.0	 1843.0	 6278	 6278	 0.0	 0.0	 1	 -30.0	 30.0;
	7561	 6069	 0.00065	 0.00698	 0.0	 1711.0	 4506	 4506	 0.0	 0.0	 1	 -30.0	 30.0;
	7561	 8825	 0.00059	 0.00806	 0.0	 1678.0	 3909	 3909	 0.0	 0.0	 1	 -30.0	 30.0;
	7556	 7058	 0.00374	 0.02095	 0.0	 800.0	 1485	 1485	 0.0	 0.0	 1	 -30.0	 30.0;
	7556	 4324	 0.00511	 0.019461	 0.0	 800.0	 1570	 1570	 0.0	 0.0	 1	 -30.0	 30.0;
	132	 2962	 0.00064	 0.00715	 0.0	 1481.0	 4401	 4401	 0.0	 0.0	 1	 -30.0	 30.0;
	132	 4393	 0.00089	 0.00712	 0.0	 1283.0	 4403	 4403	 0.0	 0.0	 1	 -30.0	 30.0;
	5044	 693	 0.00048	 0.00555	 0.0	 987.0	 5671	 5671	 0.0	 0.0	 1	 -30.0	 30.0;
	5044	 7860	 0.00047	 0.00566	 0.0	 1086.0	 5562	 5562	 0.0	 0.0	 1	 -30.0	 30.0;
	6883	 693	 0.00046	 0.00524	 0.0	 1053.0	 6006	 6006	 0.0	 0.0	 1	 -30.0	 30.0;
	6883	 7860	 0.00052	 0.00514	 0.0	 1053.0	 6115	 6115	 0.0	 0.0	 1	 -30.0	 30.0;
...